<?xml version="1.0" encoding="UTF-8"?>

<!-- generated on 2026-07-14 15:54:18.951495 by Eclipse SUMO randomTrips.py v1_27_1+0000-7717f2379d9
<configuration>
    <net-file value="D:\SUMO_Workspace\Projects\Ai-traffic-Control-System\maps\osm\osm.net.xml.gz"/>
    <output-trip-file value="D:\SUMO_Workspace\Projects\Ai-traffic-Control-System\maps\osm\generated_demand\high.trips.xml"/>
    <prefix value="high_"/>
    <edge-permission value="passenger"/>
    <seed value="303"/>
    <min-distance value="300.0"/>
    <remove-loops value="True"/>
    <begin value="1800.0"/>
    <end value="2700.0"/>
    <insertion-rate value="900.0"/>
    <random-depart value="True"/>
</configuration>
-->

<routes xmlns:xsi="http://www.w3.org/2001/XMLSchema-instance" xsi:noNamespaceSchemaLocation="http://sumo.dlr.de/xsd/routes_file.xsd">
    <trip id="high_0" depart="1807.00" from="24584426#0" to="24584380#4"/>
    <trip id="high_1" depart="1808.00" from="1438583474#8" to="611866593#0"/>
    <trip id="high_2" depart="1812.00" from="-24584511#3" to="711421326#6"/>
    <trip id="high_3" depart="1812.00" from="-998790358#11" to="-24584409#3"/>
    <trip id="high_4" depart="1824.00" from="-80678182#0" to="24583335#1"/>
    <trip id="high_5" depart="1825.00" from="1287398725#1" to="-24583584#3"/>
    <trip id="high_6" depart="1826.00" from="278577243#0" to="24577097#2"/>
    <trip id="high_7" depart="1828.00" from="1122230043#1" to="-24584420#1"/>
    <trip id="high_8" depart="1835.00" from="998790358#6" to="706970966#1"/>
    <trip id="high_9" depart="1841.00" from="1072963717#0" to="-24584424#2"/>
    <trip id="high_10" depart="1841.00" from="24583594#3" to="1438583475#6"/>
    <trip id="high_11" depart="1842.00" from="-1072963717#0" to="998790358#14"/>
    <trip id="high_12" depart="1844.00" from="447141151#0" to="563974735#4"/>
    <trip id="high_13" depart="1847.00" from="577982260#2" to="-1537111946#1"/>
    <trip id="high_14" depart="1847.00" from="1053851211#1" to="-998790358#5"/>
    <trip id="high_15" depart="1851.00" from="1271156421#5" to="563974730#5"/>
    <trip id="high_16" depart="1852.00" from="24563448#8" to="714990513#3"/>
    <trip id="high_17" depart="1852.00" from="370672194#6" to="596373338#11"/>
    <trip id="high_18" depart="1853.00" from="-577982260#4" to="447141143#1-AddedOnRampEdge"/>
    <trip id="high_19" depart="1862.00" from="712992074#1" to="998790356#7"/>
    <trip id="high_20" depart="1865.00" from="24577118#9" to="-24583491#3"/>
    <trip id="high_21" depart="1867.00" from="-24583489#0" to="1159291804"/>
    <trip id="high_22" depart="1870.00" from="278577243#0" to="1072978656#2"/>
    <trip id="high_23" depart="1872.00" from="80926773#0" to="-24583584#0"/>
    <trip id="high_24" depart="1875.00" from="24577095#5" to="-164786644#2"/>
    <trip id="high_25" depart="1877.00" from="563974730#4" to="24584409#3"/>
    <trip id="high_26" depart="1880.00" from="1053851211#5" to="24583332#1"/>
    <trip id="high_27" depart="1883.00" from="24577118#2" to="24584420#8"/>
    <trip id="high_28" depart="1886.00" from="717907814#2" to="-24583584#3"/>
    <trip id="high_29" depart="1889.00" from="-24583593#7" to="596373338#8"/>
    <trip id="high_30" depart="1902.00" from="-24583768#0" to="24584397"/>
    <trip id="high_31" depart="1905.00" from="24584409#2" to="-370672194#5"/>
    <trip id="high_32" depart="1910.00" from="-1537111945#2" to="-80950052"/>
    <trip id="high_33" depart="1918.00" from="80678182#2" to="24584384#2"/>
    <trip id="high_34" depart="1931.00" from="-998790358#6" to="1438583475#0"/>
    <trip id="high_35" depart="1933.00" from="-370672194#1" to="1122220362#1"/>
    <trip id="high_36" depart="1953.00" from="1181942240#0" to="720546573#1"/>
    <trip id="high_37" depart="1953.00" from="709276138#1" to="164786644#2"/>
    <trip id="high_38" depart="1955.00" from="1122230046" to="1122226240#1"/>
    <trip id="high_39" depart="1956.00" from="563791811#2" to="562499724#1"/>
    <trip id="high_40" depart="1956.00" from="1121186660#2" to="-24584391#1"/>
    <trip id="high_41" depart="1957.00" from="-371342951#5" to="24583327#8"/>
    <trip id="high_42" depart="1963.00" from="1122228221" to="1122026496#1"/>
    <trip id="high_43" depart="1966.00" from="686644352#2" to="116046169#1"/>
    <trip id="high_44" depart="1978.00" from="80926768#0" to="712992074#4"/>
    <trip id="high_45" depart="1979.00" from="24583487#5" to="24584416#2"/>
    <trip id="high_46" depart="1979.00" from="24584378#0" to="998790357#0"/>
    <trip id="high_47" depart="1983.00" from="-1073010464" to="714990513#0"/>
    <trip id="high_48" depart="1985.00" from="611866592#1" to="579781482#0"/>
    <trip id="high_49" depart="1987.00" from="712992071#9" to="24584417#0"/>
    <trip id="high_50" depart="1987.00" from="24577108#2" to="-24583488#2"/>
    <trip id="high_51" depart="1988.00" from="563974735#4" to="80926764#1"/>
    <trip id="high_52" depart="1992.00" from="-24583593#0" to="1053851211#5"/>
    <trip id="high_53" depart="1993.00" from="-24584420#4" to="370672194#4"/>
    <trip id="high_54" depart="1998.00" from="24583327#3" to="-1271156414#1"/>
    <trip id="high_55" depart="2001.00" from="994825990#1" to="-370672194#2"/>
    <trip id="high_56" depart="2005.00" from="-995792406#3" to="-24583487#5"/>
    <trip id="high_57" depart="2026.00" from="24584381#1" to="24583327#4"/>
    <trip id="high_58" depart="2027.00" from="-1438583474#9" to="717907817#1"/>
    <trip id="high_59" depart="2031.00" from="-24584416#1" to="80926764#6"/>
    <trip id="high_60" depart="2036.00" from="712992071#5" to="24584511#3"/>
    <trip id="high_61" depart="2037.00" from="-44277694#0" to="998790356#5"/>
    <trip id="high_62" depart="2038.00" from="24584420#9" to="-998790358#0"/>
    <trip id="high_63" depart="2040.00" from="-24583770" to="-24584421#1"/>
    <trip id="high_64" depart="2049.00" from="-1122257063" to="665150699#0"/>
    <trip id="high_65" depart="2053.00" from="-1053851211#11" to="24583327#3"/>
    <trip id="high_66" depart="2063.00" from="164786644#3" to="706970966#2"/>
    <trip id="high_67" depart="2064.00" from="24584375#0" to="706373643"/>
    <trip id="high_68" depart="2066.00" from="-1072960941#0" to="267446597"/>
    <trip id="high_69" depart="2073.00" from="24577118#8" to="-80926764#1"/>
    <trip id="high_70" depart="2076.00" from="-235103610#2" to="-370672194#3"/>
    <trip id="high_71" depart="2081.00" from="24583590#1" to="675478334#7"/>
    <trip id="high_72" depart="2081.00" from="-24584421#1" to="24577384#0"/>
    <trip id="high_73" depart="2085.00" from="-686644352#0" to="1072963717#1"/>
    <trip id="high_74" depart="2088.00" from="24584410" to="24583488#2"/>
    <trip id="high_75" depart="2091.00" from="278577245#5" to="717907817#0"/>
    <trip id="high_76" depart="2094.00" from="563679820#1" to="1121186659"/>
    <trip id="high_77" depart="2094.00" from="998790354#4" to="712992074#0"/>
    <trip id="high_78" depart="2112.00" from="24584505" to="570616026#1"/>
    <trip id="high_79" depart="2113.00" from="24583487#12" to="-995792406#5"/>
    <trip id="high_80" depart="2122.00" from="611866594" to="1122220358#0"/>
    <trip id="high_81" depart="2122.00" from="-1072954052#1" to="611866606#0"/>
    <trip id="high_82" depart="2122.00" from="24583590#5" to="-24577106#0"/>
    <trip id="high_83" depart="2129.00" from="1072960941#0" to="717907814#3"/>
    <trip id="high_84" depart="2131.00" from="24583769#0" to="611866593#0"/>
    <trip id="high_85" depart="2137.00" from="562499724#4" to="1327208476#0"/>
    <trip id="high_86" depart="2145.00" from="370545701#0" to="278577243#1"/>
    <trip id="high_87" depart="2150.00" from="717907815" to="24583332#4"/>
    <trip id="high_88" depart="2150.00" from="-370672194#5" to="24583327#1"/>
    <trip id="high_89" depart="2158.00" from="711421326#1" to="24577097#0"/>
    <trip id="high_90" depart="2168.00" from="537797266#1" to="686673952#0"/>
    <trip id="high_91" depart="2175.00" from="686673952#1" to="-24584413"/>
    <trip id="high_92" depart="2176.00" from="1072954052#1" to="665150699#0"/>
    <trip id="high_93" depart="2177.00" from="612734126#0" to="-80926764#4"/>
    <trip id="high_94" depart="2179.00" from="24583592#1" to="-24583491#2"/>
    <trip id="high_95" depart="2194.00" from="995792406#0" to="709276135#3"/>
    <trip id="high_96" depart="2199.00" from="611866595#2" to="48964552#3"/>
    <trip id="high_97" depart="2206.00" from="711421326#1" to="665150699#0"/>
    <trip id="high_98" depart="2207.00" from="1072954052#0" to="998790354#3"/>
    <trip id="high_99" depart="2208.00" from="-1072963716#1" to="-1072960941#0"/>
    <trip id="high_100" depart="2208.00" from="44352050#1" to="24577106#0"/>
    <trip id="high_101" depart="2217.00" from="996679779#4" to="562499724#11"/>
    <trip id="high_102" depart="2221.00" from="-24583593#0" to="994825990#1"/>
    <trip id="high_103" depart="2223.00" from="24583487#0" to="562499724#3"/>
    <trip id="high_104" depart="2226.00" from="-24584384#3" to="24563448#3"/>
    <trip id="high_105" depart="2232.00" from="563679836#15" to="-24583491#2"/>
    <trip id="high_106" depart="2235.00" from="717907817#1" to="447141137#2"/>
    <trip id="high_107" depart="2246.00" from="116046167#4" to="-24584417#0"/>
    <trip id="high_108" depart="2249.00" from="24583339#1" to="562499724#2"/>
    <trip id="high_109" depart="2250.00" from="-24577106#3" to="782774057#1"/>
    <trip id="high_110" depart="2254.00" from="611866595#2" to="24577096#9"/>
    <trip id="high_111" depart="2256.00" from="-1271156421#2" to="-1053851211#1"/>
    <trip id="high_112" depart="2269.00" from="537797266#4" to="1072954052#2"/>
    <trip id="high_113" depart="2278.00" from="1438583474#3" to="995793692#2"/>
    <trip id="high_114" depart="2285.00" from="570616026#1" to="24584383#2"/>
    <trip id="high_115" depart="2287.00" from="581245363#3" to="-80926764#4"/>
    <trip id="high_116" depart="2288.00" from="-1537111949" to="-998790358#15"/>
    <trip id="high_117" depart="2289.00" from="24563448#3" to="998790358#14"/>
    <trip id="high_118" depart="2306.00" from="562499724#12" to="695569947"/>
    <trip id="high_119" depart="2313.00" from="80926764#4" to="-1072954053#1"/>
    <trip id="high_120" depart="2314.00" from="-577982260#6" to="-686696454#0"/>
    <trip id="high_121" depart="2320.00" from="712992074#8" to="80926781#0"/>
    <trip id="high_122" depart="2322.00" from="370545701#0" to="24577096#14"/>
    <trip id="high_123" depart="2323.00" from="706970966#3" to="24584390#1"/>
    <trip id="high_124" depart="2326.00" from="80926768#0" to="-686644352#2"/>
    <trip id="high_125" depart="2327.00" from="447141137#1" to="717907815"/>
    <trip id="high_126" depart="2329.00" from="-24584416#3" to="708474897#1"/>
    <trip id="high_127" depart="2329.00" from="998790354#4" to="1122257063"/>
    <trip id="high_128" depart="2330.00" from="370672194#5" to="-1122230043#0"/>
    <trip id="high_129" depart="2330.00" from="596373338#6" to="1122231679"/>
    <trip id="high_130" depart="2331.00" from="-80678182#0" to="686644352#2"/>
    <trip id="high_131" depart="2331.00" from="24584419#1" to="447141151#6"/>
    <trip id="high_132" depart="2337.00" from="24583592#5" to="1327208478"/>
    <trip id="high_133" depart="2339.00" from="562499724#17" to="447141137#1"/>
    <trip id="high_134" depart="2349.00" from="48964552#1" to="-1074157512#1"/>
    <trip id="high_135" depart="2360.00" from="24584505" to="24584511#3"/>
    <trip id="high_136" depart="2368.00" from="562499724#18" to="712992071#5"/>
    <trip id="high_137" depart="2369.00" from="1121186661" to="-1122220362#0"/>
    <trip id="high_138" depart="2370.00" from="-24584420#2" to="24584393"/>
    <trip id="high_139" depart="2370.00" from="611866597" to="-278577245#5"/>
    <trip id="high_140" depart="2374.00" from="712992071#10" to="-686644352#1"/>
    <trip id="high_141" depart="2380.00" from="711421334#2" to="579781481#6"/>
    <trip id="high_142" depart="2384.00" from="24583327#2" to="24577102"/>
    <trip id="high_143" depart="2391.00" from="998790356#2" to="563974735#5"/>
    <trip id="high_144" depart="2391.00" from="1053851211#3" to="24577095#7"/>
    <trip id="high_145" depart="2395.00" from="24584383#1" to="998790356#6"/>
    <trip id="high_146" depart="2399.00" from="-24584391#0" to="-371342951#5"/>
    <trip id="high_147" depart="2400.00" from="-24584392#5" to="24583769#2"/>
    <trip id="high_148" depart="2402.00" from="44352050#1" to="-24584416#0"/>
    <trip id="high_149" depart="2406.00" from="1072978656#2" to="24584511#7"/>
    <trip id="high_150" depart="2406.00" from="717907817#4" to="24577118#9"/>
    <trip id="high_151" depart="2408.00" from="-998790354#2" to="995792406#7"/>
    <trip id="high_152" depart="2423.00" from="596373338#11" to="-24584409#1"/>
    <trip id="high_153" depart="2424.00" from="-370672194#3" to="711421334#8"/>
    <trip id="high_154" depart="2426.00" from="1066619121#1" to="579781481#5"/>
    <trip id="high_155" depart="2426.00" from="-577982260#6" to="24583769#0"/>
    <trip id="high_156" depart="2442.00" from="611866597" to="24584414#1"/>
    <trip id="high_157" depart="2450.00" from="1066077571#1" to="686644352#0"/>
    <trip id="high_158" depart="2450.00" from="370672194#4" to="1121186661"/>
    <trip id="high_159" depart="2455.00" from="-24583489#1" to="-1072954052#2"/>
    <trip id="high_160" depart="2457.00" from="611866591" to="-80926768#0"/>
    <trip id="high_161" depart="2459.00" from="998790354#7" to="24584420#5"/>
    <trip id="high_162" depart="2460.00" from="24584384#3" to="714990514#1"/>
    <trip id="high_163" depart="2463.00" from="24577096#14" to="24584381#2"/>
    <trip id="high_164" depart="2465.00" from="-24577118#2" to="712992071#2"/>
    <trip id="high_165" depart="2467.00" from="-24584421#0" to="-675478334#3"/>
    <trip id="high_166" depart="2470.00" from="-24583594#0" to="710645768"/>
    <trip id="high_167" depart="2470.00" from="686644352#1" to="1159291804"/>
    <trip id="high_168" depart="2473.00" from="-562499724#9" to="447141151#3"/>
    <trip id="high_169" depart="2475.00" from="278577245#1" to="24583495#9"/>
    <trip id="high_170" depart="2476.00" from="712992077#1" to="596373338#8"/>
    <trip id="high_171" depart="2478.00" from="711421334#1" to="502579562"/>
    <trip id="high_172" depart="2478.00" from="-24583487#5" to="-695569947"/>
    <trip id="high_173" depart="2478.00" from="717907814#2" to="-1074157512#1"/>
    <trip id="high_174" depart="2478.00" from="-24584384#0" to="995792406#1"/>
    <trip id="high_175" depart="2489.00" from="-24583489#4" to="581245363#1"/>
    <trip id="high_176" depart="2490.00" from="-370672194#7" to="563679836#12"/>
    <trip id="high_177" depart="2491.00" from="24584419#1" to="563974733#1"/>
    <trip id="high_178" depart="2496.00" from="24584426#0" to="24584380#3"/>
    <trip id="high_179" depart="2502.00" from="-370672194#10" to="-562499724#12"/>
    <trip id="high_180" depart="2505.00" from="611866592#1" to="116046169#4"/>
    <trip id="high_181" depart="2507.00" from="998790356#0" to="998790358#16"/>
    <trip id="high_182" depart="2508.00" from="998790356#0" to="1064518284"/>
    <trip id="high_183" depart="2528.00" from="-1072954052#2" to="1074157520"/>
    <trip id="high_184" depart="2531.00" from="-24584420#8" to="717907814#4"/>
    <trip id="high_185" depart="2541.00" from="570616026#1" to="24583487#6"/>
    <trip id="high_186" depart="2543.00" from="80926778#5" to="24577097#5"/>
    <trip id="high_187" depart="2544.00" from="-1073010464" to="1327208478"/>
    <trip id="high_188" depart="2550.00" from="686673952#1" to="24583489#0"/>
    <trip id="high_189" depart="2550.00" from="24583491#1" to="711421329"/>
    <trip id="high_190" depart="2551.00" from="711421326#3" to="24584375#1"/>
    <trip id="high_191" depart="2562.00" from="709281061#2" to="1066077571#3"/>
    <trip id="high_192" depart="2580.00" from="24583592#3" to="24577361#1"/>
    <trip id="high_193" depart="2580.00" from="714990513#0" to="579781481#4"/>
    <trip id="high_194" depart="2582.00" from="-80926778#1" to="579781481#5"/>
    <trip id="high_195" depart="2582.00" from="24584377#8" to="581245363#1"/>
    <trip id="high_196" depart="2586.00" from="995792405" to="24577118#5"/>
    <trip id="high_197" depart="2594.00" from="24584377#7" to="611866592#2"/>
    <trip id="high_198" depart="2600.00" from="760817631#4" to="1122226239#0"/>
    <trip id="high_199" depart="2612.00" from="562499724#14" to="-24584422#0"/>
    <trip id="high_200" depart="2613.00" from="712992074#9" to="1072960944#1"/>
    <trip id="high_201" depart="2615.00" from="24583584#2" to="24583495#8"/>
    <trip id="high_202" depart="2617.00" from="80926778#1" to="-24584512#0"/>
    <trip id="high_203" depart="2622.00" from="-1072954052#2" to="-1074764284#0"/>
    <trip id="high_204" depart="2622.00" from="714990513#1" to="-577982260#0"/>
    <trip id="high_205" depart="2628.00" from="-24583487#1" to="680551210#1"/>
    <trip id="high_206" depart="2634.00" from="563679820#2" to="1121186660#2"/>
    <trip id="high_207" depart="2634.00" from="74851428#4" to="778199266#4"/>
    <trip id="high_208" depart="2641.00" from="-24577118#2" to="-24584384#2"/>
    <trip id="high_209" depart="2643.00" from="-686696454#2" to="611866593#1"/>
    <trip id="high_210" depart="2646.00" from="-24583491#2" to="1438583474#8"/>
    <trip id="high_211" depart="2652.00" from="-24584420#2" to="1471934276"/>
    <trip id="high_212" depart="2652.00" from="-562499724#21" to="-998790354#2"/>
    <trip id="high_213" depart="2665.00" from="596373338#5" to="1072978656#2"/>
    <trip id="high_214" depart="2666.00" from="712992074#5" to="563679836#11"/>
    <trip id="high_215" depart="2668.00" from="563679836#8" to="998790358#6"/>
    <trip id="high_216" depart="2671.00" from="24583332#5" to="-562499724#6"/>
    <trip id="high_217" depart="2675.00" from="447141138#0" to="80926778#4"/>
    <trip id="high_218" depart="2676.00" from="370672194#5" to="24583487#14"/>
    <trip id="high_219" depart="2679.00" from="-1122230047#0" to="712992071#8"/>
    <trip id="high_220" depart="2686.00" from="370672194#11" to="-24584381#2"/>
    <trip id="high_221" depart="2689.00" from="-24577106#3" to="-24584381#0"/>
    <trip id="high_222" depart="2694.00" from="-24583587#3" to="447141155#2"/>
    <trip id="high_223" depart="2695.00" from="1066077570#2" to="-80921410#2"/>
    <trip id="high_224" depart="2699.00" from="44257669#3" to="447141137#2"/>
</routes>
