<?xml version="1.0" encoding="UTF-8"?>

<!-- generated on 2026-07-14 15:54:30.861366 by Eclipse SUMO randomTrips.py v1_27_1+0000-7717f2379d9
<configuration>
    <net-file value="D:\SUMO_Workspace\Projects\Ai-traffic-Control-System\maps\osm\osm.net.xml.gz"/>
    <output-trip-file value="D:\SUMO_Workspace\Projects\Ai-traffic-Control-System\maps\osm\generated_demand\recovery.trips.xml"/>
    <prefix value="recovery_"/>
    <edge-permission value="passenger"/>
    <seed value="505"/>
    <min-distance value="300.0"/>
    <remove-loops value="True"/>
    <begin value="3300.0"/>
    <insertion-rate value="300.0"/>
    <random-depart value="True"/>
</configuration>
-->

<!-- generated on 2026-07-14T15:54:30.468700+05:30 by Eclipse SUMO duarouter 1.27.1
<duarouterConfiguration xmlns:xsi="http://www.w3.org/2001/XMLSchema-instance" xsi:noNamespaceSchemaLocation="http://sumo.dlr.de/xsd/duarouterConfiguration.xsd">

    <input>
        <net-file value="D:\SUMO_Workspace\Projects\Ai-traffic-Control-System\maps\osm\osm.net.xml.gz"/>
        <route-files value="D:\SUMO_Workspace\Projects\Ai-traffic-Control-System\maps\osm\generated_demand\recovery.trips.xml"/>
    </input>

    <output>
        <output-file value="routes.rou.xml"/>
        <alternatives-output value="NUL"/>
    </output>

    <processing>
        <remove-loops value="true"/>
        <routing-threads value="6"/>
    </processing>

    <time>
        <begin value="3300.0"/>
        <end value="3600.0"/>
    </time>

    <report>
        <no-warnings value="true"/>
        <ignore-errors value="true"/>
        <no-step-log value="true"/>
    </report>

</duarouterConfiguration>
-->

<routes xmlns:xsi="http://www.w3.org/2001/XMLSchema-instance" xsi:noNamespaceSchemaLocation="http://sumo.dlr.de/xsd/routes_file.xsd">
    <vehicle id="recovery_0" depart="3305.00">
        <route edges="-24583495#5 -24583495#4 -24583495#3 -24583495#2 -24583495#1 -24583495#0 24583494 1469015609#1 1469015609#2 1469015609#3 1469015609#4 1469015609#5 24583768#0 24583768#2 24583768#3 -1493678699#1 -1493678699#0"/>
    </vehicle>
    <vehicle id="recovery_1" depart="3313.00">
        <route edges="717907814#2 717907814#3 717907814#4 717907814#5 717907814#6 717907814#7 717907814#8 778199266#0 778199266#1 778199266#2 749606293 1066077570#0 1066077570#1 1066077570#2 447141137#1 447141137#2 758753881#1 590609994#0 590609994#1 572511730 447141148 24583327#0 24583327#1 24583327#2 24583327#3 24583327#4 24583327#5 24583327#6 24583327#7 24583327#8 24583327#9 24583327#10 24583327#11 74851428#1 74851428#2 74851428#3 74851428#4 74851428#5 74851428#5-AddedOffRampEdge 74851428#6 614071995 596373338#0 596373338#1 596373338#2 596373338#4 596373338#5 596373338#6 596373338#7 596373338#8 596373338#9 596373338#10 596373338#11 596373338#12"/>
    </vehicle>
    <vehicle id="recovery_2" depart="3329.00">
        <route edges="24583339#4 24583339#5 24583339#6 447141132#4 596373329 562340239 722082943#0 722082943#1 23134734#0 23134734#1 23134734#2 23134734#3 710645770 447141133#0 447141133#1 722082944 447141132#0 447141132#1 370545701#0 370545701#1 370545701#2 1469015609#5 24583337#0 24583337#1 24583337#2 24583335#0 24583335#1 24583335#2 24583335#4 24583335#5 1493678697 24583324#0 24583324#1 590609994#0 590609994#1 717907807#0 717907807#1 717907807#2 717907807#3 717907807#4 717907807#6 24583320#0 24583320#1 570526051 447141152#0 447141152#1 48964552#0 48964552#1 48964552#2 48964552#3 48964552#5 48964552#6 48964552#7 48964552#8 998197440 447141154 1278775919 24583771#1 24584396 1271156421#0 1271156421#1 1271156421#2 1271156421#3 80926773#1"/>
    </vehicle>
    <vehicle id="recovery_3" depart="3332.00">
        <route edges="553090004#0 553090004#1 502579560 665150699#0 1126838107 447141143#1-AddedOnRampEdge 447141143#1 1424529893 665150665#1 998197441 447141141 998197440 447141154 1278775919 24583771#1 24584396 1271156421#0 1271156421#1"/>
    </vehicle>
    <vehicle id="recovery_4" depart="3360.00">
        <route edges="-998790358#0 998790353#0 998790353#1 1533060172#0 1533060172#1 -998790354#7 -998790354#5 -998790354#4 -998790354#3 -998790354#2 -998790354#1 -998790354#0 998790357#0 -998790356#8 -998790356#7 -998790356#6 -998790356#5 -998790356#4 -998790356#3 -998790356#2"/>
    </vehicle>
    <vehicle id="recovery_5" depart="3367.00">
        <route edges="711421334#2 711421334#3 24563448#6 24563448#7 24563448#8 24563449#4 24563449#5 24563449#6 24577095#0 24577095#1 24577095#2 24577095#3 24577095#5 24577095#6 24577095#7 24577095#8 23134734#3 710645770 447141133#0 447141133#1 722082944 447141132#0 447141132#1 370545701#0 370545701#1 370545701#2 1469015609#5 24583337#0 24583337#1 24583337#2 24583335#0 24583335#1 24583335#2 24583335#4 24583335#5 1493678697 24583324#0 24583324#1 590609994#0 590609994#1 717907807#0 -80926764#6 -80926764#5 -80926764#4 -80926764#3 -80926764#2 -80926764#1 -80926764#0"/>
    </vehicle>
    <vehicle id="recovery_6" depart="3375.00">
        <route edges="1122230048 1122230047#1 1287398725#3 1287398725#4 1066077571#0 1066077571#1 1066077571#2 1066077571#3 447141145 998790362#0 998790362#1 1327208477#0 1327208477#1 1327208477#2 1493678699#0 1493678699#1 24577106#0 24577106#1 24577106#2 24577106#3 24577106#4 24577106#5 998790361 447141132#0 447141132#1 447141132#2 447141132#3 447141132#4 596373329 562340239 998790359 998790356#0 998790356#1 998790356#2 998790356#3 998790356#4 998790356#5 998790356#6 998790356#7 998790356#8 24577118#0 24583584#2 24583584#3"/>
    </vehicle>
    <vehicle id="recovery_7" depart="3392.00">
        <route edges="116046167#8 563974733#1 995793692#0 995793692#1 995793692#2 995793692#4 995793692#5 995793692#6 995793692#7 563975284#0 563974730#0 563974730#1 563974730#2 563974730#3 563974730#4 563974730#5 74851428#1"/>
    </vehicle>
    <vehicle id="recovery_8" depart="3392.00">
        <route edges="611866595#4 611866594 611866596#0 611866596#1 778199266#2 1064518284 447141138#0 447141138#1 611866597 24584390#1 24584389#0 24584389#1 24584389#2 24584389#3 782774053 722082950 570413589#0 570413589#1 570413589#2 447141139 24584380#0 24584380#1 24584380#2 24584380#3 24584380#4 24584380#5 24584380#6 24584380#7 24584380#8 24584380#9 24584379 1278775919 24583771#1 24583771#2 24583771#3 1278775918#0 1278775918#1 48964551 1424529893 665150665#1 998197441 447141151#0 447141151#1 447141151#2"/>
    </vehicle>
    <vehicle id="recovery_9" depart="3395.00">
        <route edges="712992071#2 712992071#3 712992071#4 712992071#5 712992071#6 712992071#7 712992071#8 712992071#9 712992071#10 712992071#11 712992071#12 24563449#8 24563449#9 24563449#10 24563449#11 24563449#1 24563449#2 711421334#0 711421334#1 711421334#2 711421334#3 -537797267#1 -359757123 1307222667#1 722082946#0 722082946#1 760536612 680551209 758488038 758753872 758753873 24577391#0 24577391#1 24577391#2 570427353 570413595#0 24577395 1438583475#2 1438583475#3 1438583475#4 -80921410#2 -80921410#1 -80921410#0 24618002#5 24618002#6 24618002#7 24618002#1 -1474236997#2 -1474236997#1 -1474236997#0"/>
    </vehicle>
    <vehicle id="recovery_10" depart="3397.00">
        <route edges="1053851211#7 1053851211#8 1053851211#9 1053851211#11 1053851211#12 1327208476#0 1327208476#2 570413590 570427355#0 570427355#1 447143201#0 447143201#1 24577102 717907819#0 717907819#1 717907819#2 717907819#3 717907819#4 717907819#5 717907818#0 717907818#1 717907817#0 717907817#1"/>
    </vehicle>
    <vehicle id="recovery_11" depart="3397.00">
        <route edges="24584420#8 24584420#9 -80678182#0 1271156422 -1271156421#5 -1271156421#4 -1271156421#3 -1271156421#2 -1271156421#1 -1271156421#0 24584397 24583771#3 1278775918#0 1278775918#1 48964551 1424529893 665150665#1 998197441 447141151#0 447141151#1 447141151#2 447141151#3 447141151#5 447141151#6 447141151#7 447141150#0 447141150#1 554665390 24583321#0 24583321#1 24583321#2 997761553 997761552#0 997761552#1 994825990#0 994825990#1 994825990#2 994825990#3 447141148 572511731 447141147#0 24583334#0 24583334#1 24583334#4 24583334#5 1493678698#1 1493678698#2 1469015609#1 1469015609#2 1469015609#3 24583339#0"/>
    </vehicle>
    <vehicle id="recovery_12" depart="3425.00">
        <route edges="570413594 1493678685 1307222667#1 722082946#0 722082946#1 760536612 680551209 758488038 758753872 758753873 24577391#0 24577391#1 24577391#2 570427353 570413595#0 24577395 1438583475#2 1438583475#3 1438583475#4 -80921410#2 -80921410#1"/>
    </vehicle>
    <vehicle id="recovery_13" depart="3469.00">
        <route edges="1072960946#3 1073010464 -24584511#4 -24584511#3 686684499 24584500#3 24584501 -80678182#2 -80678182#1 -80678182#0 1271156422 -1271156421#5 -1271156421#4 -1271156421#3 -1271156421#2 -1271156421#1 -1271156421#0 24584397 24583771#3 1278775918#0 1278775918#1 48964551 1424529893 665150665#1 998197441 447141151#0 447141151#1 447141151#2 447141151#3 447141151#5 447141151#6 447141151#7 447141150#0 447141150#1 554665390 24583321#0 24583321#1 24583321#2 997761553 997761552#0 997761552#1 994825990#0 994825990#1 994825990#2 994825990#3 447141148 572511731 447141147#0 24583334#0 24583334#1 24583334#4 24583334#5 1493678698#1 1493678698#2 1469015609#1 1469015609#2 1469015609#3 24583339#0 24583339#1 24583339#2 24583339#3 24583339#4 24583339#5 24583339#6 447141132#4 596373329 562340239 998790359 998790356#0 998790356#1 998790356#2 998790356#3 998790356#4 998790356#5 998790356#6 998790356#7 998790356#8 24577118#0 24583584#2 -686644352#2 -686644352#1 -686644352#0 -995792406#5 -995792406#4"/>
    </vehicle>
    <vehicle id="recovery_14" depart="3492.00">
        <route edges="-998790358#6 -998790358#5 -998790358#4 -998790358#3 -998790358#2 -998790358#1 -998790358#0 998790353#0 998790353#1 1533060172#0 1533060172#1 -998790354#7 -998790354#5 -998790354#4 -998790354#3 -998790354#2 -998790354#1 -998790354#0 998790357#0 -998790356#8 -998790356#7 -998790356#6 -998790356#5 -998790356#4 -998790356#3 -998790356#2 -998790356#1 -998790356#0 998790360 23134734#0 23134734#1 23134734#2 23134734#3 710645770 447141133#0 447141133#1 722082944 447141132#0 447141132#1 370545701#0 370545701#1 370545701#2 1469015609#5 24583337#0 24583337#1 24583337#2 24583335#0 24583335#1 24583335#2 24583335#4 24583335#5 1493678697 24583324#0 24583324#1 590609994#0 590609994#1 717907807#0 717907807#1 717907807#2 717907807#3 717907807#4 717907807#6 24583320#0 24583320#1 570526051 447141152#0 447141152#1 48964552#0 48964552#1 48964552#2 48964552#3 48964552#5 48964552#6 48964552#7 48964552#8 998197440 447141154 1278775919 24583771#1 24583771#2 24583771#3 24583773 447141155#0 447141155#1 447141155#2 502579562 -24584511#9 -24584511#8 -1073010466 -1072960945#1 1072960944#0"/>
    </vehicle>
    <vehicle id="recovery_15" depart="3498.00">
        <route edges="686673952#1 686673952#2 686673952#3 563791811#6 563791811#7 563974733#1 995793692#0 995793692#1 995793692#2 995793692#4 995793692#5 995793692#6 995793692#7 563975284#0 563974730#0 563974730#1 563974730#2 -24583491#3 -24583491#2 -24583491#1 -24583491#0 1374632732 1469015609#3 1469015609#4 1469015609#5 24583337#0 24583337#1 24583337#2 1493678698#0 1493678698#1 24583493 24583495#0 24583495#1 24583495#2 24583495#3 24583495#4 24583495#5"/>
    </vehicle>
    <vehicle id="recovery_16" depart="3503.00">
        <route edges="24583594#0 24583594#1 24583594#2 24583594#3 116046167#4 116046167#5 116046167#6 116046167#7 995793691 995793692#0 995793692#1 995793692#2 995793692#4 995793692#5 995793692#6 995793692#7 563975284#0 563974730#0 563974730#1 563974730#2 563974730#3 563974730#4 1122226240#0 1122226240#1 996679779#2 996679779#3 996679779#4 996679779#5 996679779#6 996679779#7 996679779#8 447141147#0 24583334#0"/>
    </vehicle>
    <vehicle id="recovery_17" depart="3525.00">
        <route edges="-998790358#3 -998790358#2 -998790358#1 -998790358#0 998790353#0 998790353#1 1533060172#0 1533060172#1 -998790354#7 -998790354#5 -998790354#4 -998790354#3 -998790354#2 -998790354#1 -998790354#0 998790357#0 -998790356#8 -998790356#7 -998790356#6 -998790356#5 -998790356#4 -998790356#3 -998790356#2 -998790356#1 -998790356#0 998790360 23134734#0 23134734#1 23134734#2 23134734#3 710645770 447141133#0 447141133#1 722082944 447141132#0 447141132#1 370545701#0 370545701#1 370545701#2 1469015609#5 24583337#0 24583337#1 24583337#2 24583335#0 24583335#1 24583335#2 24583335#4 24583335#5 1493678697 24583324#0 24583324#1 590609994#0 590609994#1 717907807#0 717907807#1 717907807#2 717907807#3 717907807#4 717907807#6 24583320#0 24583320#1 570526051 447141152#0 447141152#1 48964552#0 48964552#1 48964552#2 48964552#3 48964552#5 48964552#6 48964552#7 48964552#8 998197440 447141154 1278775919 24583771#1 24584396 24584419#0"/>
    </vehicle>
    <vehicle id="recovery_18" depart="3539.00">
        <route edges="1271156412#3 1271156412#4 581245359 581245363#0 581245363#1 581245363#3 581245363#4 570413588#0 570413588#1 714990513#0 714990513#1 714990513#2 714990513#3 570413589#0 570413589#1 570413589#2 447141139 24584380#0 -686696454#0"/>
    </vehicle>
    <vehicle id="recovery_19" depart="3543.00">
        <route edges="24577114#0 24577114#1 24577114#2 24577114#3 712992075#4 712992075#5 712992077#0 712992077#1 24577121#9 579781482#0 579781482#1 579781482#2 998790352#1 998790358#0 998790358#1 998790358#2 998790358#3 998790358#4 998790358#5 998790358#6 998790358#7 998790358#9 998790358#10 998790358#11 998790358#12 998790358#14 998790358#15 998790358#16 998790358#17 -24583593#4 -24583593#3 -24583593#2 -24583592#6 -24583592#5 -562499724#19 -562499724#18 -562499724#17 -562499724#16 -562499724#15 -562499724#14 -562499724#12 -562499724#11 -562499724#9 -562499724#8 -562499724#7"/>
    </vehicle>
    <vehicle id="recovery_20" depart="3558.00">
        <route edges="24583487#3 24583487#5 24583487#6 24583487#8 24583487#9 24583487#10 24583487#11 24583487#12 24583487#13 24583487#14 994825990#0 994825990#1 994825990#2 994825990#3 447141148 572511731 447141147#0 447141147#1 1493678697 758753883 778199266#0 778199266#1 778199266#2 1064518284 447141138#0 447141138#1 611866597 24584390#1 24584389#0 24584389#1 24584389#2 24584389#3 714990514#0 714990514#1 24584398#0 24584398#1 24584398#2 24584398#3 24584398#4 570413587#0 570413587#1 24584423#1 24584423#2"/>
    </vehicle>
    <vehicle id="recovery_21" depart="3576.00">
        <route edges="24583327#10 24583327#11 996679779#1 996679779#2 996679779#3 996679779#4 996679779#5 996679779#6 996679779#7 996679779#8 447141147#0 447141147#1 1493678697 24583324#0 24583324#1 590609994#0 590609994#1 717907807#0 717907807#1 717907807#2 717907807#3 717907807#4 717907807#6 24583320#0 24583320#1 570526051 447141152#0 447141152#1 48964552#0 48964552#1 48964552#2 48964552#3 48964552#5 48964552#6 48964552#7 48964552#8 998197440 447141154 1278775919 24583771#1 24584396 24584419#0 24584419#1"/>
    </vehicle>
    <vehicle id="recovery_22" depart="3577.00">
        <route edges="44352050#1 24577391#2 570427353 570413595#0 570413595#1 570413594 1493678685 1493678683#1 760536611#1 760536611#2 760536611#3 447143201#0 447143201#1 24577101#0 24577101#1 722082948#0 722082948#1 447141145 998790362#0 998790362#1 1327208477#0 1327208477#1 1327208477#2 1493678699#0 1493678699#1 -24583768#3 -24583768#2 -24583768#0 24583337#0 24583337#1 24583337#2 1493678698#0 1493678698#1 1493678698#2 1469015609#1 1469015609#2 1469015609#3 24583339#0 24583339#1 24583339#2 24583339#3 24583339#4 24583339#5"/>
    </vehicle>
    <vehicle id="recovery_23" depart="3578.00">
        <route edges="1053851211#6 1053851211#7 1053851211#8 1053851211#9 1053851211#11 1053851211#12 1327208476#0 1327208476#2 570413590 570427355#0 570427355#1 447143201#0 447143201#1 24577101#0 24577101#1 1066077572 717907814#2 717907814#3 717907814#4 717907814#5 717907814#6"/>
    </vehicle>
    <vehicle id="recovery_24" depart="3585.00">
        <route edges="24577095#3 24577095#5 24577095#6 24577095#7 24577095#8 23134734#3 710645770 447141133#0 447141133#1 722082944 447141132#0 447141132#1 447141132#2 447141132#3 447141132#4 596373329 562340239 998790359 998790356#0 998790356#1 998790356#2 998790356#3 998790356#4 998790356#5 998790356#6 998790356#7 998790356#8 998790355#1 998790354#0 998790354#1 998790354#2 998790354#3 998790354#4 998790354#5 998790354#7 1533060173#0 1533060173#1 998790352#1 998790358#0 998790358#1 998790358#2 998790358#3 998790358#4 998790358#5 998790358#6 998790358#7 998790358#9 998790358#10 998790358#11 998790358#12 998790358#14 998790358#15 998790358#16 998790358#17 24583593#5 24583593#6 -370672194#11 -370672194#10 -370672194#8 -370672194#7"/>
    </vehicle>
</routes>
