<?xml version="1.0" encoding="UTF-8"?>

<!-- generated on 2026-07-21 18:25:06.731193 by Eclipse SUMO osmWebWizard.py v1_27_1+0000-7717f2379d9
<configuration>
    <net-file value="C:\Users\sudha\Sumo\2026-07-21-18-16-49\osm.net.xml.gz"/>
    <output-trip-file value="C:\Users\sudha\Sumo\2026-07-21-18-16-49\osm.truck.trips.xml"/>
    <route-file value="C:\Users\sudha\Sumo\2026-07-21-18-16-49\osm.truck.rou.xml"/>
    <prefix value="truck"/>
    <trip-attributes value="departLane=&quot;best&quot;"/>
    <fringe-start-attributes value="departSpeed=&quot;max&quot;"/>
    <vehicle-class value="truck"/>
    <fringe-factor value="5"/>
    <edge-permission value="truck"/>
    <via-edge-types value="highway.motorway,highway.motorway_link,highway.trunk_link,highway.primary_link,highway.secondary_link,highway.tertiary_link"/>
    <seed value="45"/>
    <min-distance value="600.0"/>
    <min-distance.fringe value="10.0"/>
    <remove-loops value="True"/>
    <insertion-density value="8.0"/>
</configuration>
-->

<routes xmlns:xsi="http://www.w3.org/2001/XMLSchema-instance" xsi:noNamespaceSchemaLocation="http://sumo.dlr.de/xsd/routes_file.xsd">
    <vType id="truck_truck" vClass="truck"/>
    <trip id="truck0" depart="0.00" from="-370955239#0" to="1125127545" departLane="best" type="truck_truck"/>
    <trip id="truck1" depart="0.42" from="-1171046301#0" to="-660123513#0" departLane="best" type="truck_truck"/>
    <trip id="truck2" depart="0.84" from="-1122596203" to="-1057070258" departLane="best" type="truck_truck"/>
    <trip id="truck3" depart="1.26" from="-417010628#1" to="-1255475588" departLane="best" type="truck_truck"/>
    <trip id="truck4" depart="1.68" from="-421290120#1" to="37222901#8" departLane="best" type="truck_truck" departSpeed="max"/>
    <trip id="truck5" depart="2.10" from="-1071574682" to="167468628#5" departLane="best" type="truck_truck" departSpeed="max"/>
    <trip id="truck6" depart="2.52" from="265763304#0" to="-243329207#2" departLane="best" type="truck_truck"/>
    <trip id="truck7" depart="2.94" from="423621973#2" to="288500048#3" departLane="best" type="truck_truck"/>
    <trip id="truck8" depart="3.36" from="-1123830778#0" to="1050685733#2" departLane="best" type="truck_truck"/>
    <trip id="truck9" depart="3.78" from="202800238#0" to="696664262#1" departLane="best" type="truck_truck"/>
    <trip id="truck10" depart="4.20" from="-164702340#6" to="-377572377#1" departLane="best" type="truck_truck" departSpeed="max"/>
    <trip id="truck11" depart="4.62" from="370955223#3" to="764039427#4" departLane="best" type="truck_truck"/>
    <trip id="truck12" depart="5.04" from="28121486#6" to="-424014433#1" departLane="best" type="truck_truck"/>
    <trip id="truck13" depart="5.46" from="-570827854#3" to="583910220#10" departLane="best" type="truck_truck"/>
    <trip id="truck14" depart="5.88" from="275139592#0" to="202800238#1" departLane="best" type="truck_truck" departSpeed="max"/>
    <trip id="truck15" depart="6.30" from="44316350#2" to="370902438#1" departLane="best" type="truck_truck"/>
    <trip id="truck16" depart="6.72" from="421280687#2" to="169413612#2" departLane="best" type="truck_truck"/>
    <trip id="truck17" depart="7.14" from="1253187154#1" to="-1100749835" departLane="best" type="truck_truck"/>
    <trip id="truck18" depart="7.56" from="-424007896" to="168100724#0" departLane="best" type="truck_truck" departSpeed="max"/>
    <trip id="truck19" depart="7.98" from="1324325487" to="-422146763#7" departLane="best" type="truck_truck"/>
    <trip id="truck20" depart="8.40" from="-694446817#0" to="424014411" departLane="best" type="truck_truck"/>
    <trip id="truck21" depart="8.81" from="-1307476667" to="1075962915#2" departLane="best" type="truck_truck"/>
    <trip id="truck22" depart="9.23" from="570803640#0" to="164910167#4" departLane="best" type="truck_truck"/>
    <trip id="truck23" depart="9.65" from="-1071416787" to="45323264" departLane="best" type="truck_truck" departSpeed="max"/>
    <trip id="truck24" depart="10.07" from="167468610#18" to="1203083884" departLane="best" type="truck_truck"/>
    <trip id="truck25" depart="10.49" from="-417157125#8" to="-423557018#2" departLane="best" type="truck_truck"/>
    <trip id="truck26" depart="10.91" from="-167468610#12" to="167468614#3" departLane="best" type="truck_truck"/>
    <trip id="truck27" depart="11.33" from="1203887541#2" to="-696664263#1" departLane="best" type="truck_truck"/>
    <trip id="truck28" depart="11.75" from="-38116076" to="1071444947" departLane="best" type="truck_truck"/>
    <trip id="truck29" depart="12.17" from="163193933#14" to="1192089440#3" departLane="best" type="truck_truck"/>
    <trip id="truck30" depart="12.59" from="167468630#5" to="1147017734#1" departLane="best" type="truck_truck"/>
    <trip id="truck31" depart="13.01" from="-1345105351" to="-1059143622#0" departLane="best" type="truck_truck"/>
    <trip id="truck32" depart="13.43" from="772394684" to="424034264" departLane="best" type="truck_truck" departSpeed="max"/>
    <trip id="truck33" depart="13.85" from="-1187765474" to="164910159" departLane="best" type="truck_truck"/>
    <trip id="truck34" depart="14.27" from="37222913#2" to="664985709#1" departLane="best" type="truck_truck"/>
    <trip id="truck35" depart="14.69" from="-112102188#0" to="-1469358537" departLane="best" type="truck_truck"/>
    <trip id="truck36" depart="15.11" from="-660123521#1" to="1537097129#5" departLane="best" type="truck_truck"/>
    <trip id="truck37" depart="15.53" from="-1183630060" to="265032208#1" departLane="best" type="truck_truck" departSpeed="max"/>
    <trip id="truck38" depart="15.95" from="28153880#0" to="1074715753#1" departLane="best" type="truck_truck"/>
    <trip id="truck39" depart="16.37" from="424007901#1" to="-773159638#2" departLane="best" type="truck_truck"/>
    <trip id="truck40" depart="16.79" from="422146758#4" to="-739750541#1" departLane="best" type="truck_truck"/>
    <trip id="truck41" depart="17.21" from="-686568013#1" to="-717046639#3" departLane="best" type="truck_truck"/>
    <trip id="truck42" depart="17.63" from="229927480#4" to="636961632#0" departLane="best" type="truck_truck"/>
    <trip id="truck43" depart="18.05" from="-1122583317#1" to="1459217957" departLane="best" type="truck_truck"/>
    <trip id="truck44" depart="18.47" from="-242476850" to="-696793460#0" departLane="best" type="truck_truck" departSpeed="max"/>
    <trip id="truck45" depart="18.89" from="583620104#0" to="-264103376#2" departLane="best" type="truck_truck"/>
    <trip id="truck46" depart="19.31" from="1075725531" to="275139603#2" departLane="best" type="truck_truck"/>
    <trip id="truck47" depart="19.73" from="169413602#2" to="1459218321" departLane="best" type="truck_truck"/>
    <trip id="truck48" depart="20.15" from="44316349" to="169413583#1" departLane="best" type="truck_truck"/>
    <trip id="truck49" depart="20.57" from="686569921#1" to="170000084#3" departLane="best" type="truck_truck"/>
    <trip id="truck50" depart="20.99" from="1251098666" to="-1076773580" departLane="best" type="truck_truck" departSpeed="max"/>
    <trip id="truck51" depart="21.41" from="673792810#1" to="-28121486#6" departLane="best" type="truck_truck"/>
    <trip id="truck52" depart="21.83" from="-23151088#3" to="-1075984605#0" departLane="best" type="truck_truck"/>
    <trip id="truck53" depart="22.25" from="132087594#10" to="-706609022" departLane="best" type="truck_truck"/>
    <trip id="truck54" depart="22.67" from="164910183#2" to="423556998#1" departLane="best" type="truck_truck"/>
    <trip id="truck55" depart="23.09" from="706609014#2" to="422146788" departLane="best" type="truck_truck"/>
    <trip id="truck56" depart="23.51" from="423409319" to="-722443712" departLane="best" type="truck_truck"/>
    <trip id="truck57" depart="23.93" from="-1076522332#4" to="421280688#2" departLane="best" type="truck_truck"/>
    <trip id="truck58" depart="24.35" from="660123514" to="1270655645#4" departLane="best" type="truck_truck"/>
    <trip id="truck59" depart="24.77" from="-542802207#2" to="424014381#0" departLane="best" type="truck_truck" departSpeed="max"/>
    <trip id="truck60" depart="25.19" from="176492654#15" to="-1185428346" departLane="best" type="truck_truck"/>
    <trip id="truck61" depart="25.61" from="-220381924#3" to="-994855782#0" departLane="best" type="truck_truck"/>
    <trip id="truck62" depart="26.03" from="275139575#0" to="220416146#2" departLane="best" type="truck_truck" departSpeed="max"/>
    <trip id="truck63" depart="26.44" from="1252824024#0" to="421285594" departLane="best" type="truck_truck"/>
    <trip id="truck64" depart="26.86" from="-686670997#0" to="1376418860" departLane="best" type="truck_truck"/>
    <trip id="truck65" depart="27.28" from="168898783#0" to="168094391#1" departLane="best" type="truck_truck" departSpeed="max"/>
    <trip id="truck66" depart="27.70" from="39013511#16" to="80519914#1" departLane="best" type="truck_truck"/>
    <trip id="truck67" depart="28.12" from="242476851#2" to="775960562" departLane="best" type="truck_truck"/>
    <trip id="truck68" depart="28.54" from="167468598#0" to="-421287872#2" departLane="best" type="truck_truck"/>
    <trip id="truck69" depart="28.96" from="43359324" to="220387350" departLane="best" type="truck_truck"/>
    <trip id="truck70" depart="29.38" from="1187268499#4" to="-660123523#2" departLane="best" type="truck_truck"/>
    <trip id="truck71" depart="29.80" from="1204082506" to="696664264" departLane="best" type="truck_truck" departSpeed="max"/>
    <trip id="truck72" depart="30.22" from="-527703935#1" to="-1057071821#4" departLane="best" type="truck_truck"/>
    <trip id="truck73" depart="30.64" from="-1253575137" to="1252814308" departLane="best" type="truck_truck" departSpeed="max"/>
    <trip id="truck74" depart="31.06" from="423593964#1" to="-1075962915#2" departLane="best" type="truck_truck"/>
    <trip id="truck75" depart="31.48" from="-686849296#0" to="-660123513#3" departLane="best" type="truck_truck"/>
    <trip id="truck76" depart="31.90" from="-721152283" to="168275173#0" departLane="best" type="truck_truck" departSpeed="max"/>
    <trip id="truck77" depart="32.32" from="1071447277" to="-421280704#2" departLane="best" type="truck_truck" departSpeed="max"/>
    <trip id="truck78" depart="32.74" from="44831985#0" to="423409318" departLane="best" type="truck_truck" departSpeed="max"/>
    <trip id="truck79" depart="33.16" from="654175709#0" to="-1311754925#0" departLane="best" type="truck_truck"/>
    <trip id="truck80" depart="33.58" from="1090548919" to="-292194576#1" departLane="best" type="truck_truck"/>
    <trip id="truck81" depart="34.00" from="167468613#2" to="1076000734" departLane="best" type="truck_truck"/>
    <trip id="truck82" depart="34.42" from="312031913" to="424036589#1" departLane="best" type="truck_truck"/>
    <trip id="truck83" depart="34.84" from="-819742094#2" to="-1253478035" departLane="best" type="truck_truck" departSpeed="max"/>
    <trip id="truck84" depart="35.26" from="660186217#10" to="1187268496#4" departLane="best" type="truck_truck"/>
    <trip id="truck85" depart="35.68" from="-696664269#0" to="-220203317#5" departLane="best" type="truck_truck"/>
    <trip id="truck86" depart="36.10" from="1075687538#2" to="561938852#2" departLane="best" type="truck_truck"/>
    <trip id="truck87" depart="36.52" from="696644443#1" to="-1539445378#0" departLane="best" type="truck_truck"/>
    <trip id="truck88" depart="36.94" from="-1253501577" to="813854185#2" departLane="best" type="truck_truck" departSpeed="max"/>
    <trip id="truck89" depart="37.36" from="1076235983#0" to="169002218" departLane="best" type="truck_truck"/>
    <trip id="truck90" depart="37.78" from="176466560#3" to="1057069154" departLane="best" type="truck_truck"/>
    <trip id="truck91" depart="38.20" from="-661677271#2" to="565938874#3" departLane="best" type="truck_truck" departSpeed="max"/>
    <trip id="truck92" depart="38.62" from="1326448662#2" to="-1059143624" departLane="best" type="truck_truck"/>
    <trip id="truck93" depart="39.04" from="-1074464907" to="424014431#0" departLane="best" type="truck_truck" departSpeed="max"/>
    <trip id="truck94" depart="39.46" from="1253189587#1" to="37222914" departLane="best" type="truck_truck"/>
    <trip id="truck95" depart="39.88" from="1071428898#0" to="28121486#0" departLane="best" type="truck_truck" departSpeed="max"/>
    <trip id="truck96" depart="40.30" from="-423621951" to="-696830048#0" departLane="best" type="truck_truck"/>
    <trip id="truck97" depart="40.72" from="-423619309#1" to="-422146763#6" departLane="best" type="truck_truck" departSpeed="max"/>
    <trip id="truck98" depart="41.14" from="715377040#3" to="583910213#2" departLane="best" type="truck_truck"/>
    <trip id="truck99" depart="41.56" from="1122576171#0" to="-1075051012#1" departLane="best" type="truck_truck"/>
    <trip id="truck100" depart="41.98" from="689446381" to="423401382#1" departLane="best" type="truck_truck"/>
    <trip id="truck101" depart="42.40" from="1534772651#8" to="766036533#0" departLane="best" type="truck_truck"/>
    <trip id="truck102" depart="42.82" from="28211393#0" to="163193280#7" departLane="best" type="truck_truck" departSpeed="max"/>
    <trip id="truck103" depart="43.24" from="-423556998#1" to="167468617#2" departLane="best" type="truck_truck" departSpeed="max"/>
    <trip id="truck104" depart="43.66" from="-696830048#1" to="-169413582#1" departLane="best" type="truck_truck"/>
    <trip id="truck105" depart="44.07" from="-152784363#1" to="-1253234256#0" departLane="best" type="truck_truck"/>
    <trip id="truck106" depart="44.49" from="169421699#2" to="-716608419#5" departLane="best" type="truck_truck"/>
    <trip id="truck107" depart="44.91" from="80950012#4" to="689446382" departLane="best" type="truck_truck"/>
    <trip id="truck108" depart="45.33" from="-417156340#1" to="-1252733900#0" departLane="best" type="truck_truck"/>
    <trip id="truck109" depart="45.75" from="422146750#5" to="424053601" departLane="best" type="truck_truck"/>
    <trip id="truck110" depart="46.17" from="-424034266" to="417157120#5" departLane="best" type="truck_truck"/>
    <trip id="truck111" depart="46.59" from="-739750543#6" to="167468598#4" departLane="best" type="truck_truck"/>
    <trip id="truck112" depart="47.01" from="80950012#2" to="-163193933#11" departLane="best" type="truck_truck"/>
    <trip id="truck113" depart="47.43" from="-1187765471" to="-1255549564" departLane="best" type="truck_truck"/>
    <trip id="truck114" depart="47.85" from="-1123527994" to="-164910179#2" departLane="best" type="truck_truck"/>
    <trip id="truck115" depart="48.27" from="-1057072058" to="1251093315" departLane="best" type="truck_truck"/>
    <trip id="truck116" depart="48.69" from="1516804950" to="-421290103#0" departLane="best" type="truck_truck"/>
    <trip id="truck117" depart="49.11" from="-1057071812" to="-1074385951#4" departLane="best" type="truck_truck" departSpeed="max"/>
    <trip id="truck118" depart="49.53" from="169421729#1" to="-1042326330#1" departLane="best" type="truck_truck"/>
    <trip id="truck119" depart="49.95" from="-24577416#2" to="1075051012#0" departLane="best" type="truck_truck"/>
    <trip id="truck120" depart="50.37" from="-686691352#5" to="70258965#1" departLane="best" type="truck_truck" departSpeed="max"/>
    <trip id="truck121" depart="50.79" from="1305032092#1" to="-686701509#1" departLane="best" type="truck_truck"/>
    <trip id="truck122" depart="51.21" from="1541038918#5" to="-1076773580" departLane="best" type="truck_truck"/>
    <trip id="truck123" depart="51.63" from="-167468630#2" to="424007887" departLane="best" type="truck_truck"/>
    <trip id="truck124" depart="52.05" from="-80440840#11" to="1147017734#2" departLane="best" type="truck_truck"/>
    <trip id="truck125" depart="52.47" from="422146754#0" to="170000088#1" departLane="best" type="truck_truck"/>
    <trip id="truck126" depart="52.89" from="-163193933#3" to="1076773582#15" departLane="best" type="truck_truck"/>
    <trip id="truck127" depart="53.31" from="424014403#1" to="-686613320#1" departLane="best" type="truck_truck"/>
    <trip id="truck128" depart="53.73" from="717046639#3" to="-220203320#6" departLane="best" type="truck_truck"/>
    <trip id="truck129" depart="54.15" from="-38116094#1" to="-265903497#9" departLane="best" type="truck_truck"/>
    <trip id="truck130" depart="54.57" from="164910183#2" to="38116061#0" departLane="best" type="truck_truck"/>
    <trip id="truck131" depart="54.99" from="560895965" to="-1534772677#1" departLane="best" type="truck_truck" departSpeed="max"/>
    <trip id="truck132" depart="55.41" from="-370955223#5" to="23151088#7" departLane="best" type="truck_truck"/>
    <trip id="truck133" depart="55.83" from="1290450966#4" to="-686636875#2" departLane="best" type="truck_truck"/>
    <trip id="truck134" depart="56.25" from="-205080610#0" to="45323262#2" departLane="best" type="truck_truck"/>
    <trip id="truck135" depart="56.67" from="-424036587#1" to="170000091#0" departLane="best" type="truck_truck" departSpeed="max"/>
    <trip id="truck136" depart="57.09" from="-716015301#5" to="-275139589#2" departLane="best" type="truck_truck"/>
    <trip id="truck137" depart="57.51" from="-707027024" to="-205080617#0" departLane="best" type="truck_truck" departSpeed="max"/>
    <trip id="truck138" depart="57.93" from="-1255161709#1" to="421454671#4" departLane="best" type="truck_truck"/>
    <trip id="truck139" depart="58.35" from="-421290126#6" to="242476854#0" departLane="best" type="truck_truck" departSpeed="max"/>
    <trip id="truck140" depart="58.77" from="690172026#0" to="686691352#5" departLane="best" type="truck_truck"/>
    <trip id="truck141" depart="59.19" from="1075056955#0" to="-1057071791" departLane="best" type="truck_truck"/>
    <trip id="truck142" depart="59.61" from="169222358#4" to="1187268468#3" departLane="best" type="truck_truck"/>
    <trip id="truck143" depart="60.03" from="28121535" to="421290120#1" departLane="best" type="truck_truck" departSpeed="max"/>
    <trip id="truck144" depart="60.45" from="-423593964#1" to="1187533521#1" departLane="best" type="truck_truck"/>
    <trip id="truck145" depart="60.87" from="370955245" to="686611376#1" departLane="best" type="truck_truck"/>
    <trip id="truck146" depart="61.29" from="1057070844" to="287658625#2" departLane="best" type="truck_truck" departSpeed="max"/>
    <trip id="truck147" depart="61.70" from="1187268496#5" to="-275694828#1" departLane="best" type="truck_truck"/>
    <trip id="truck148" depart="62.12" from="527703944" to="1253187151" departLane="best" type="truck_truck"/>
    <trip id="truck149" depart="62.54" from="-164910160#1" to="1376418862" departLane="best" type="truck_truck"/>
    <trip id="truck150" depart="62.96" from="424014450#1" to="-167468622#5" departLane="best" type="truck_truck"/>
    <trip id="truck151" depart="63.38" from="-1536811064#0" to="169196737#2" departLane="best" type="truck_truck"/>
    <trip id="truck152" depart="63.80" from="-1255501045#0" to="417157131#4" departLane="best" type="truck_truck"/>
    <trip id="truck153" depart="64.22" from="1255518945" to="1118871259" departLane="best" type="truck_truck" departSpeed="max"/>
    <trip id="truck154" depart="64.64" from="-775970173#2" to="774999419#0" departLane="best" type="truck_truck"/>
    <trip id="truck155" depart="65.06" from="-421287880#1" to="1290450966#6" departLane="best" type="truck_truck"/>
    <trip id="truck156" depart="65.48" from="-527703932" to="-1057069133" departLane="best" type="truck_truck" departSpeed="max"/>
    <trip id="truck157" depart="65.90" from="275139602#3" to="169221586#2" departLane="best" type="truck_truck"/>
    <trip id="truck158" depart="66.32" from="583910220#1" to="-370547061#1" departLane="best" type="truck_truck"/>
    <trip id="truck159" depart="66.74" from="1495477899#5" to="424014394#1" departLane="best" type="truck_truck"/>
    <trip id="truck160" depart="67.16" from="167468615#1" to="1057070292#3" departLane="best" type="truck_truck"/>
    <trip id="truck161" depart="67.58" from="686660357#0" to="37222901#1" departLane="best" type="truck_truck"/>
    <trip id="truck162" depart="68.00" from="-716608419#5" to="710621825#6" departLane="best" type="truck_truck"/>
    <trip id="truck163" depart="68.42" from="566680388#0" to="77349469#3" departLane="best" type="truck_truck" departSpeed="max"/>
    <trip id="truck164" depart="68.84" from="715743299#3" to="717457944" departLane="best" type="truck_truck"/>
    <trip id="truck165" depart="69.26" from="-696664262#1" to="-819419166#1" departLane="best" type="truck_truck" departSpeed="max"/>
    <trip id="truck166" depart="69.68" from="77355810#3" to="-1071428195" departLane="best" type="truck_truck"/>
    <trip id="truck167" depart="70.10" from="710621825#3" to="424007888" departLane="best" type="truck_truck"/>
    <trip id="truck168" depart="70.52" from="-168275206#1" to="168381552#3" departLane="best" type="truck_truck"/>
    <trip id="truck169" depart="70.94" from="-45323270#5" to="37222918#4" departLane="best" type="truck_truck"/>
    <trip id="truck170" depart="71.36" from="686610228#1" to="38116085#11" departLane="best" type="truck_truck"/>
    <trip id="truck171" depart="71.78" from="423557015#2" to="-421289067#1" departLane="best" type="truck_truck"/>
    <trip id="truck172" depart="72.20" from="1071432116#1" to="1081097726#1" departLane="best" type="truck_truck"/>
    <trip id="truck173" depart="72.62" from="697289106#3" to="-24577418#10" departLane="best" type="truck_truck"/>
    <trip id="truck174" depart="73.04" from="235103467#4" to="235103536#2" departLane="best" type="truck_truck"/>
    <trip id="truck175" depart="73.46" from="-424007886" to="706609018#1" departLane="best" type="truck_truck" departSpeed="max"/>
    <trip id="truck176" depart="73.88" from="660123527#3" to="-38116089#10" departLane="best" type="truck_truck"/>
    <trip id="truck177" depart="74.30" from="-422146763#4" to="169413582#0" departLane="best" type="truck_truck"/>
    <trip id="truck178" depart="74.72" from="-1255162857#0" to="-421290107#0" departLane="best" type="truck_truck"/>
    <trip id="truck179" depart="75.14" from="-1253164208" to="275139602#5" departLane="best" type="truck_truck"/>
    <trip id="truck180" depart="75.56" from="1057071813#1" to="-1238230918" departLane="best" type="truck_truck"/>
    <trip id="truck181" depart="75.98" from="167468604#4" to="-338959812#2" departLane="best" type="truck_truck"/>
    <trip id="truck182" depart="76.40" from="169413600#0" to="-636961632#1" departLane="best" type="truck_truck" departSpeed="max"/>
    <trip id="truck183" depart="76.82" from="777918879#1" to="-112102237#6" departLane="best" type="truck_truck"/>
    <trip id="truck184" depart="77.24" from="-1075951927#3" to="-773765063#3" departLane="best" type="truck_truck"/>
    <trip id="truck185" depart="77.66" from="-1255466695" to="-152784363#6" departLane="best" type="truck_truck" departSpeed="max"/>
    <trip id="truck186" depart="78.08" from="287653320#2" to="1253864732" departLane="best" type="truck_truck"/>
    <trip id="truck187" depart="78.50" from="176466591#1" to="-169413582#5" departLane="best" type="truck_truck"/>
    <trip id="truck188" depart="78.92" from="1537097129#5" to="421280695#4" departLane="best" type="truck_truck"/>
    <trip id="truck189" depart="79.33" from="-1183845653#1" to="-169413595#0" departLane="best" type="truck_truck"/>
    <trip id="truck190" depart="79.75" from="-80440840#19" to="-44352053#1" departLane="best" type="truck_truck"/>
    <trip id="truck191" depart="80.17" from="423619342#6" to="1255454438#6" departLane="best" type="truck_truck"/>
    <trip id="truck192" depart="80.59" from="-871032377" to="-775967402#0" departLane="best" type="truck_truck" departSpeed="max"/>
    <trip id="truck193" depart="81.01" from="-1541038904" to="-170000091#4" departLane="best" type="truck_truck" departSpeed="max"/>
    <trip id="truck194" depart="81.43" from="-370955249#3" to="-1057070284" departLane="best" type="truck_truck"/>
    <trip id="truck195" depart="81.85" from="-1539399709#0" to="1456183750" departLane="best" type="truck_truck"/>
    <trip id="truck196" depart="82.27" from="1071504738" to="1183836790#3" departLane="best" type="truck_truck" departSpeed="max"/>
    <trip id="truck197" depart="82.69" from="112102241#1" to="1320704572" departLane="best" type="truck_truck"/>
    <trip id="truck198" depart="83.11" from="994855782#0" to="1203887540#5" departLane="best" type="truck_truck" departSpeed="max"/>
    <trip id="truck199" depart="83.53" from="340394250#4" to="-423593957#1" departLane="best" type="truck_truck"/>
    <trip id="truck200" depart="83.95" from="417157131#4" to="1252734948#1" departLane="best" type="truck_truck"/>
    <trip id="truck201" depart="84.37" from="424021845#3" to="739750546#3" departLane="best" type="truck_truck"/>
    <trip id="truck202" depart="84.79" from="-169196737#2" to="661677271#0" departLane="best" type="truck_truck"/>
    <trip id="truck203" depart="85.21" from="1502797498#4" to="664985709#0" departLane="best" type="truck_truck"/>
    <trip id="truck204" depart="85.63" from="-1075962913#1" to="424014450#3" departLane="best" type="truck_truck"/>
    <trip id="truck205" depart="86.05" from="275139594#1" to="44317041#4" departLane="best" type="truck_truck"/>
    <trip id="truck206" depart="86.47" from="-417010625#0" to="-424053599" departLane="best" type="truck_truck"/>
    <trip id="truck207" depart="86.89" from="164910176#0" to="-686643980#3" departLane="best" type="truck_truck"/>
    <trip id="truck208" depart="87.31" from="1123151118" to="424014404" departLane="best" type="truck_truck"/>
    <trip id="truck209" depart="87.73" from="611866609#1" to="370955221#3" departLane="best" type="truck_truck"/>
    <trip id="truck210" depart="88.15" from="424014401#0" to="-1057070857#1" departLane="best" type="truck_truck"/>
    <trip id="truck211" depart="88.57" from="132087596#5" to="686577812#0" departLane="best" type="truck_truck"/>
    <trip id="truck212" depart="88.99" from="-423593964#0" to="1541038918#13" departLane="best" type="truck_truck"/>
    <trip id="truck213" depart="89.41" from="-1190157697" to="417156340#16" departLane="best" type="truck_truck" departSpeed="max"/>
    <trip id="truck214" depart="89.83" from="-220385651#2" to="777926811" departLane="best" type="truck_truck"/>
    <trip id="truck215" depart="90.25" from="1255542009#3" to="-1076235982#0" departLane="best" type="truck_truck"/>
    <trip id="truck216" depart="90.67" from="-422146763#9" to="220385652#8" departLane="best" type="truck_truck"/>
    <trip id="truck217" depart="91.09" from="-1183834252#1" to="424007919#1" departLane="best" type="truck_truck" departSpeed="max"/>
    <trip id="truck218" depart="91.51" from="169421730#2" to="23151090#2" departLane="best" type="truck_truck"/>
    <trip id="truck219" depart="91.93" from="-422146754#2" to="-1253552788" departLane="best" type="truck_truck"/>
    <trip id="truck220" depart="92.35" from="1077590084#0" to="220385652#2" departLane="best" type="truck_truck"/>
    <trip id="truck221" depart="92.77" from="275139595#3" to="1076564287#4" departLane="best" type="truck_truck"/>
    <trip id="truck222" depart="93.19" from="696664263#3" to="1254857435#1" departLane="best" type="truck_truck"/>
    <trip id="truck223" depart="93.61" from="-1076758878" to="169196737#1" departLane="best" type="truck_truck" departSpeed="max"/>
    <trip id="truck224" depart="94.03" from="424014416#0" to="1123830778#1" departLane="best" type="truck_truck"/>
    <trip id="truck225" depart="94.45" from="169421701#0" to="-167468630#3" departLane="best" type="truck_truck"/>
    <trip id="truck226" depart="94.87" from="169221587#0" to="1252790261#2" departLane="best" type="truck_truck"/>
    <trip id="truck227" depart="95.29" from="39013511#0" to="1183630060" departLane="best" type="truck_truck"/>
    <trip id="truck228" depart="95.71" from="583910220#8" to="813854184#2" departLane="best" type="truck_truck"/>
    <trip id="truck229" depart="96.13" from="1076243106#2" to="-370904800#0" departLane="best" type="truck_truck"/>
    <trip id="truck230" depart="96.55" from="584241795#1" to="-1252778670" departLane="best" type="truck_truck"/>
    <trip id="truck231" depart="96.96" from="-672161238#5" to="686670997#6" departLane="best" type="truck_truck"/>
    <trip id="truck232" depart="97.38" from="1255167142" to="276169621#0" departLane="best" type="truck_truck"/>
    <trip id="truck233" depart="97.80" from="-1116351088#0" to="370955248#0" departLane="best" type="truck_truck"/>
    <trip id="truck234" depart="98.22" from="707027027#0" to="-1057071826" departLane="best" type="truck_truck" departSpeed="max"/>
    <trip id="truck235" depart="98.64" from="-235153817#4" to="424007894" departLane="best" type="truck_truck"/>
    <trip id="truck236" depart="99.06" from="38116090#3" to="1456183750" departLane="best" type="truck_truck"/>
    <trip id="truck237" depart="99.48" from="697289105-AddedOnRampEdge" to="1311754925#2" departLane="best" type="truck_truck"/>
    <trip id="truck238" depart="99.90" from="-23151090#29" to="422146755#0" departLane="best" type="truck_truck"/>
    <trip id="truck239" depart="100.32" from="-421280686#3" to="-275139584#2" departLane="best" type="truck_truck" departSpeed="max"/>
    <trip id="truck240" depart="100.74" from="-371321382#1" to="-167468625#0" departLane="best" type="truck_truck"/>
    <trip id="truck241" depart="101.16" from="-169413582#4" to="421290120#1" departLane="best" type="truck_truck"/>
    <trip id="truck242" depart="101.58" from="-766036526#5" to="-1042326330#2" departLane="best" type="truck_truck"/>
    <trip id="truck243" depart="102.00" from="-313241733#0" to="1187268473#3" departLane="best" type="truck_truck"/>