<?xml version="1.0" encoding="UTF-8"?>

<!-- generated on 2026-07-21T18:17:25.129969+05:30 by Eclipse SUMO netconvert 1.27.1
<netconvertConfiguration xmlns:xsi="http://www.w3.org/2001/XMLSchema-instance" xsi:noNamespaceSchemaLocation="http://sumo.dlr.de/xsd/netconvertConfiguration.xsd">

    <input>
        <type-files value="${SUMO_HOME}\data\typemap\osmNetconvert.typ.xml,${SUMO_HOME}\data\typemap\osmNetconvertAerialway.typ.xml"/>
        <osm-files value="osm_bbox.osm.xml.gz"/>
    </input>

    <output>
        <output-file value="osm.net.xml.gz"/>
        <output.street-names value="true"/>
        <output.original-names value="true"/>
        <ptstop-output value="osm_stops.add.xml"/>
        <ptline-output value="osm_ptlines.xml"/>
        <ptline-clean-up value="true"/>
    </output>

    <projection>
        <proj.utm value="true"/>
    </projection>

    <processing>
        <geometry.remove value="true"/>
        <lefthand value="true"/>
    </processing>

    <tls_building>
        <tls.discard-simple value="true"/>
        <tls.join value="true"/>
        <tls.guess-signals value="true"/>
        <tls.default-type value="actuated"/>
    </tls_building>

    <ramp_guessing>
        <ramps.guess value="true"/>
    </ramp_guessing>

    <junctions>
        <junctions.join value="true"/>
    </junctions>

    <railway>
        <railway.topology.repair value="true"/>
    </railway>

</netconvertConfiguration>
-->

<additional xmlns:xsi="http://www.w3.org/2001/XMLSchema-instance" xsi:noNamespaceSchemaLocation="http://sumo.dlr.de/xsd/additional_file.xsd">
    <trainStop id="-554257793" name="Dilli Haat - INA" lane="-343626950#1_0" startPos="6517.84" endPos="6717.84" friendlyPos="true">
        <access lane="-669010727#2_0" pos="85.04" length="8.05" friendlyPos="1"/>
        <access lane="31756485#1_0" pos="226.51" length="28.88" friendlyPos="1"/>
        <access lane="662973182_0" pos="32.75" length="19.02" friendlyPos="1"/>
        <access lane="669010727#2_0" pos="29.05" length="12.85" friendlyPos="1"/>
        <access lane="676708026#1_0" pos="59.35" length="6.10" friendlyPos="1"/>
    </trainStop>
    <trainStop id="-554257797" name="Lok Kalyan Marg" lane="-343626950#1_0" startPos="3885.05" endPos="4085.05" friendlyPos="true">
        <access lane="1271885130_0" pos="0.00" length="28.39" friendlyPos="1"/>
        <access lane="176492658#0_0" pos="10.10" length="20.92" friendlyPos="1"/>
        <access lane="370543239#8_0" pos="20.72" length="2.99" friendlyPos="1"/>
        <access lane="683766461_0" pos="10.90" length="13.83" friendlyPos="1"/>
        <access lane="749606301_0" pos="0.00" length="18.77" friendlyPos="1"/>
    </trainStop>
    <trainStop id="-554257800" name="Seva Teerth" lane="-343626950#1_0" startPos="2534.37" endPos="2734.37" friendlyPos="true">
        <access lane="-1123521082_0" pos="121.13" length="151.45" friendlyPos="1"/>
        <access lane="24577391_0" pos="8.94" length="112.40" friendlyPos="1"/>
        <access lane="24577393_0" pos="531.34" length="143.53" friendlyPos="1"/>
        <access lane="44352050#1_0" pos="181.36" length="1.40" friendlyPos="1"/>
        <access lane="722443696#0_0" pos="72.01" length="15.04" friendlyPos="1"/>
    </trainStop>
    <trainStop id="-554257805" name="Jor Bagh" lane="-343626950#1_0" startPos="5096.63" endPos="5296.63" friendlyPos="true">
        <access lane="265032208#1_0" pos="165.16" length="15.40" friendlyPos="1"/>
        <access lane="31756484#8_0" pos="43.89" length="11.01" friendlyPos="1"/>
        <access lane="31756484#9_0" pos="0.00" length="34.22" friendlyPos="1"/>
        <access lane="601484555#3_0" pos="34.10" length="28.03" friendlyPos="1"/>
        <access lane="686635839#3_0" pos="27.18" length="23.17" friendlyPos="1"/>
    </trainStop>
    <trainStop id="-554257818" name="Patel Chowk" lane="-343626950#1_0" startPos="1004.54" endPos="1204.54" friendlyPos="true"/>
    <busStop id="-5715393721" name="Lodhi Colony" lane="-766036523#4_0" startPos="55.26" endPos="70.26" friendlyPos="true" lines="794"/>
    <busStop id="-6122143946" name="Jal Vihar Terminal" lane="-653235647#0_0" startPos="0.00" endPos="15.00" friendlyPos="true" lines="410 450 410A"/>
    <trainStop id="-6195740840" name="Hazrat Nizamuddin Junction" lane="-312031917#2_0" startPos="251.65" endPos="451.65" friendlyPos="true">
        <access lane="1509738976#0_0" pos="12.84" length="46.90" friendlyPos="1"/>
        <access lane="1509738977_0" pos="0.00" length="33.14" friendlyPos="1"/>
        <access lane="763087905_0" pos="0.00" length="26.81" friendlyPos="1"/>
        <access lane="986016696_0" pos="23.09" length="32.02" friendlyPos="1"/>
        <access lane="986016700_0" pos="0.00" length="30.04" friendlyPos="1"/>
    </trainStop>
    <trainStop id="-6196100472" name="Mayur Vihar - I (Pink Line)" lane="-364896924_0" startPos="662.57" endPos="862.57" friendlyPos="true">
        <access lane="-859691650#2_0" pos="15.00" length="24.57" friendlyPos="1"/>
        <access lane="1101506557#1_0" pos="51.83" length="7.95" friendlyPos="1"/>
        <access lane="1463242688_0" pos="44.38" length="8.99" friendlyPos="1"/>
        <access lane="422163455_0" pos="0.00" length="27.59" friendlyPos="1"/>
        <access lane="859691650#2_0" pos="55.72" length="29.37" friendlyPos="1"/>
    </trainStop>
    <trainStop id="-6196100473" name="Shree Ram Mandir Mayur Vihar" lane="-364896924_0" startPos="0.00" endPos="200.00" friendlyPos="true">
        <access lane="1101506557#0_0" pos="0.00" length="235.52" friendlyPos="1"/>
    </trainStop>
    <trainStop id="-6287897762" name="Lodhi Colony" lane="-672159746_0" startPos="1725.34" endPos="1925.34" friendlyPos="true">
        <access lane="-1077590084#1_0" pos="0.00" length="40.75" friendlyPos="1"/>
        <access lane="1077590084#1_0" pos="10.04" length="36.52" friendlyPos="1"/>
        <access lane="152784363#9_0" pos="107.06" length="47.78" friendlyPos="1"/>
        <access lane="1537427636_0" pos="0.00" length="47.06" friendlyPos="1"/>
        <access lane="1537427638_0" pos="21.54" length="48.63" friendlyPos="1"/>
    </trainStop>
    <trainStop id="-6547772108" name="Central Secretariat" lane="-343626950#1_0" startPos="1827.06" endPos="2027.06" friendlyPos="true"/>
    <busStop id="-7154453335" name="Lodhi Colony Market" lane="-766036533#0_0" startPos="43.02" endPos="58.02" friendlyPos="true" lines="794"/>
    <busStop id="10221267679" name="Humayun Road" lane="24577367#6_0" startPos="9.03" endPos="24.03" friendlyPos="true" lines="181A"/>
    <trainStop id="1135153141" name="Nehru Place" lane="188245893#2_0" startPos="5142.16" endPos="5342.16" friendlyPos="true" lines="6"/>
    <trainStop id="13604911524" name="Sarai Kale Khan" lane="1483765054_0" startPos="0.00" endPos="77.28" friendlyPos="true">
        <access lane="-80439698#1_0" pos="38.78" length="24.38" friendlyPos="1"/>
        <access lane="1465361534#5_0" pos="17.17" length="53.90" friendlyPos="1"/>
        <access lane="202678196#0_0" pos="32.48" length="60.37" friendlyPos="1"/>
        <access lane="70258954#1_0" pos="34.63" length="46.45" friendlyPos="1"/>
        <access lane="80439698#1_0" pos="206.14" length="29.18" friendlyPos="1"/>
    </trainStop>
    <trainStop id="13604911525" name="Sarai Kale Khan" lane="1483765053_0" startPos="0.00" endPos="78.47" friendlyPos="true">
        <access lane="-80439698#1_0" pos="36.83" length="15.03" friendlyPos="1"/>
        <access lane="1465361534#4_0" pos="0.20" length="54.39" friendlyPos="1"/>
        <access lane="1465361534#5_0" pos="16.90" length="44.12" friendlyPos="1"/>
        <access lane="1465361537_0" pos="34.00" length="55.97" friendlyPos="1"/>
        <access lane="80439698#1_0" pos="208.09" length="19.83" friendlyPos="1"/>
    </trainStop>
    <busStop id="13669726310" name="Sarai Kale Khan" lane="1491586817_0" startPos="10.51" endPos="25.51" friendlyPos="true"/>
    <trainStop id="1665772897" name="Central Secretariat" lane="188245893#0_0" startPos="8552.85" endPos="8752.85" friendlyPos="true" lines="6"/>
    <busStop id="1694776065" name="PT College (Kotla)" lane="563791819#11_0" startPos="8.07" endPos="23.07" friendlyPos="true" lines="450 623"/>
    <trainStop id="1869899247" name="New Ashok Nagar" lane="210933925_0" startPos="3917.89" endPos="4117.89" friendlyPos="true" lines="3"/>
    <trainStop id="1988668271" name="Janpath" lane="188245893#0_0" startPos="7285.99" endPos="7485.99" friendlyPos="true" lines="6"/>
    <trainStop id="1988668281" name="Jama Masjid" lane="188245893#0_0" startPos="2319.79" endPos="2519.79" friendlyPos="true" lines="6"/>
    <busStop id="2578295201" name="Jawaharlal Nehru Stadium" lane="561929986#3_0" startPos="47.50" endPos="62.50" friendlyPos="true" lines="623"/>
    <busStop id="2578295203" name="Jawaharlal Nehru Stadium" lane="561929985#0_0" startPos="93.05" endPos="108.05" friendlyPos="true" lines="450"/>
    <trainStop id="2622338438" name="Mandi House" lane="188245893#0_0" startPos="5622.74" endPos="5822.74" friendlyPos="true" lines="6"/>
    <trainStop id="2722924227" name="Lal Quila" lane="188245893#0_0" startPos="1461.17" endPos="1661.17" friendlyPos="true" lines="6"/>
    <trainStop id="2833526616" name="South Extension" lane="279102625_0" startPos="4362.67" endPos="4562.67" friendlyPos="true">
        <access lane="-1305032092#1_0" pos="140.07" length="12.35" friendlyPos="1"/>
        <access lane="1123517760_0" pos="5.80" length="55.60" friendlyPos="1"/>
        <access lane="1305032092#1_0" pos="34.10" length="17.15" friendlyPos="1"/>
        <access lane="28412393#2_0" pos="33.70" length="13.86" friendlyPos="1"/>
        <access lane="565938871#3_0" pos="81.08" length="37.36" friendlyPos="1"/>
    </trainStop>
    <trainStop id="2833526619" name="Bhikaji Cama Place" lane="279102625_0" startPos="531.65" endPos="731.65" friendlyPos="true"/>
    <trainStop id="2833526623" name="Lajpat Nagar (Pink Line)" lane="279102625_0" startPos="6161.25" endPos="6361.25" friendlyPos="true">
        <access lane="660554275#0_0" pos="0.00" length="6.53" friendlyPos="1"/>
        <access lane="660554276#2_0" pos="0.20" length="7.22" friendlyPos="1"/>
        <access lane="660554304#1_0" pos="18.95" length="11.84" friendlyPos="1"/>
        <access lane="660554304#2_0" pos="1.35" length="6.95" friendlyPos="1"/>
        <access lane="660554304#3_0" pos="0.00" length="12.08" friendlyPos="1"/>
    </trainStop>
    <trainStop id="2833526634" name="Dilli Haat - INA" lane="279102625_0" startPos="2871.13" endPos="3071.13" friendlyPos="true">
        <access lane="-1255199346#1_0" pos="10.39" length="13.40" friendlyPos="1"/>
        <access lane="1255199346#1_0" pos="9.12" length="8.60" friendlyPos="1"/>
        <access lane="663757336#1_0" pos="0.00" length="22.69" friendlyPos="1"/>
        <access lane="663757339#1_0" pos="25.02" length="19.74" friendlyPos="1"/>
        <access lane="663757347_0" pos="0.00" length="25.14" friendlyPos="1"/>
    </trainStop>
    <trainStop id="2833526638" name="Sarojini Nagar" lane="279102625_0" startPos="1891.22" endPos="2091.22" friendlyPos="true"/>
    <trainStop id="2837165876" name="Delhi Gate" lane="188245893#0_0" startPos="3584.48" endPos="3784.48" friendlyPos="true" lines="6"/>
    <busStop id="355435748" name="Sujan Singh Park" lane="176492654#18_0" startPos="113.02" endPos="128.02" friendlyPos="true" lines="166 623"/>
    <trainStop id="3580369626" name="ITO" lane="188245893#0_0" startPos="4813.25" endPos="5013.25" friendlyPos="true" lines="6"/>
    <trainStop id="4676940460" name="Ashram" lane="615615095#1_0" startPos="428.06" endPos="628.06" friendlyPos="true">
        <access lane="1365353178#1_0" pos="13.10" length="19.30" friendlyPos="1"/>
        <access lane="1365353182#1_0" pos="1.07" length="12.86" friendlyPos="1"/>
        <access lane="37751254#2_0" pos="17.42" length="21.87" friendlyPos="1"/>
        <access lane="39013515#0_0" pos="17.25" length="19.00" friendlyPos="1"/>
        <access lane="39013515#1_0" pos="6.73" length="6.57" friendlyPos="1"/>
    </trainStop>
    <busStop id="4819415322" name="All India Institute of Medical Sciences" lane="28412393#6_0" startPos="201.96" endPos="216.96" friendlyPos="true" lines="623"/>
    <busStop id="4819437823" name="Safdarjung Hospital" lane="28746245_0" startPos="233.64" endPos="248.64" friendlyPos="true" lines="984A 623 578 727 544 543 479 323 (-) TMS 442 724 543B"/>
    <busStop id="5121928122" name="Maharani Bagh" lane="39013523#5_0" startPos="78.88" endPos="93.88" friendlyPos="true" lines="534 534A 469 543 (-) TMS"/>
    <busStop id="5121928125" name="Gurudwara Bala Sahib" lane="70258965#3_0" startPos="0.00" endPos="8.66" friendlyPos="true" lines="534 534A 469 (-) OMS 492 (-) TMS 311A"/>
    <busStop id="5121928128" name="Sarai Kale Khan" lane="1491586823_0" startPos="11.06" endPos="26.06" friendlyPos="true" lines="534 534A 469 543 (-) OMS 492 (-) TMS 311A"/>
    <busStop id="5121928130" name="Sarai Kale Khan ISBT" lane="70258954#5_0" startPos="0.00" endPos="15.00" friendlyPos="true" lines="BPExp 534 534A 469 543 (-) OMS 492 (-) TMS 311A"/>
    <busStop id="5248673897" name="Jawaharlal Nehru Stadium" lane="561929985#0_0" startPos="102.96" endPos="117.96" friendlyPos="true" lines="623"/>
    <busStop id="5273109722" name="DPS School (near Neela Gumbad)" lane="561759719#1_0" startPos="86.91" endPos="101.91" friendlyPos="true" lines="166"/>
    <busStop id="5342182505" lane="562479736#4_0" startPos="348.67" endPos="363.67" friendlyPos="true" lines="418A"/>
    <busStop id="5342182750" lane="562479736#3_0" startPos="10.07" endPos="25.07" friendlyPos="true" lines="418A"/>
    <busStop id="5426388555" name="Dayal Singh College" lane="80958874#14_0" startPos="42.44" endPos="57.44" friendlyPos="true" lines="166 450 181A 623"/>
    <busStop id="5426388558" name="Nehru Nagar" lane="44317039_0" startPos="14.98" endPos="29.98" friendlyPos="true" lines="410 469 543 413 427 (-) OMS 492 (-) TMS 410A 311A"/>
    <busStop id="5426388566" name="South Extension" lane="565938871#2_0" startPos="0.00" endPos="15.00" friendlyPos="true" lines="984A 623 611 727 544 479 323 (-) TMS 442 724 543B"/>
    <busStop id="5426389543" name="Nehru Nagar" lane="586156360#2_0" startPos="17.54" endPos="32.54" friendlyPos="true" lines="427 410 410A"/>
    <busStop id="5426389916" name="Sujan Singh Park" lane="1187268489#0_0" startPos="0.00" endPos="15.00" friendlyPos="true" lines="166 181A 623"/>
    <busStop id="5426390776" name="ISPAT Bhawan" lane="561759718#3_0" startPos="8.20" endPos="23.20" friendlyPos="true" lines="166"/>
    <busStop id="5426390921" name="Dayal Singh College" lane="176492654#4_0" startPos="52.34" endPos="67.34" friendlyPos="true" lines="166 623"/>
    <busStop id="5426391318" name="South Extension" lane="562340226#4_0" startPos="51.34" endPos="66.34" friendlyPos="true" lines="623"/>
    <busStop id="5426391723" name="South Extension" lane="565938871#2_0" startPos="12.55" endPos="27.55" friendlyPos="true" lines="543"/>
    <busStop id="5430723253" name="Sri Niwas Puri" lane="586156360#3_0" startPos="44.60" endPos="59.60" friendlyPos="true" lines="427 410 410A"/>
    <busStop id="5431738836" name="Defence Colony (Homeopathic College)" lane="563791819#4_0" startPos="29.72" endPos="44.72" friendlyPos="true" lines="450 623"/>
    <busStop id="5432771968" name="Pragati Vihar" lane="673792810#2_0" startPos="18.20" endPos="33.20" friendlyPos="true" lines="450 623"/>
    <busStop id="5441522259" name="Central School Lodhi Road" lane="176492665#1_0" startPos="30.60" endPos="45.60" friendlyPos="true" lines="794"/>
    <busStop id="5441523402" name="Central School Lodhi Road" lane="562340228#2_0" startPos="40.78" endPos="55.78" friendlyPos="true" lines="794"/>
    <busStop id="5441523433" name="Lodhi Colony Block 12-13" lane="766036529#1_0" startPos="0.00" endPos="11.03" friendlyPos="true" lines="794"/>
    <busStop id="5483331962" name="Kidwai Nagar" lane="31756485#1_0" startPos="241.02" endPos="256.02" friendlyPos="true" lines="794"/>
    <busStop id="5483332132" name="Safdarjung Airport" lane="571167485#0_0" startPos="6.36" endPos="21.36" friendlyPos="true" lines="794"/>
    <busStop id="5541755268" lane="31756484#2_0" startPos="0.00" endPos="0.20" friendlyPos="true" lines="794"/>
    <busStop id="5541755269" name="Kidwai Nagar" lane="689446381_0" startPos="0.00" endPos="15.00" friendlyPos="true" lines="578 519 794"/>
    <trainStop id="554257785" name="Malviya Nagar" lane="154708919#0_0" startPos="2121.14" endPos="2321.14" friendlyPos="true"/>
    <trainStop id="554257789" name="Green Park" lane="154708919#0_0" startPos="5383.58" endPos="5583.58" friendlyPos="true"/>
    <busStop id="5584870725" name="Ashram" lane="202645529#0_0" startPos="79.97" endPos="94.97" friendlyPos="true" lines="410 413 427 410A"/>
    <busStop id="5584872921" name="Ashram" lane="77349488#3_0" startPos="16.34" endPos="31.34" friendlyPos="true" lines="427 413 410 410A"/>
    <busStop id="5585958328" name="Nehru Nagar" lane="566680382_0" startPos="8.38" endPos="23.38" friendlyPos="true" lines="413 460"/>
    <trainStop id="562620239" name="Jawaharlal Nehru Stadium" lane="188245893#1_0" startPos="1053.23" endPos="1253.23" friendlyPos="true" lines="6">
        <access lane="1253513756#0_0" pos="0.20" length="92.52" friendlyPos="1"/>
        <access lane="1253513756#2_0" pos="20.33" length="74.79" friendlyPos="1"/>
        <access lane="169222358#3_0" pos="54.46" length="30.71" friendlyPos="1"/>
        <access lane="169222358#4_0" pos="0.00" length="82.46" friendlyPos="1"/>
        <access lane="169222364#5_0" pos="108.47" length="45.46" friendlyPos="1"/>
    </trainStop>
    <trainStop id="562620241" name="Jangpura" lane="188245893#2_0" startPos="637.70" endPos="837.70" friendlyPos="true" lines="6">
        <access lane="1152735263_0" pos="0.00" length="35.49" friendlyPos="1"/>
        <access lane="1263294330#0_0" pos="13.82" length="28.51" friendlyPos="1"/>
        <access lane="1410923199_0" pos="0.00" length="39.52" friendlyPos="1"/>
        <access lane="1410923212_0" pos="0.00" length="3.86" friendlyPos="1"/>
        <access lane="768102458#2_0" pos="0.00" length="40.79" friendlyPos="1"/>
    </trainStop>
    <trainStop id="562620806" name="Lajpat Nagar (Violet Line)" lane="188245893#2_0" startPos="2080.10" endPos="2280.10" friendlyPos="true" lines="6">
        <access lane="1511284564#0_0" pos="0.00" length="19.29" friendlyPos="1"/>
        <access lane="38116088_0" pos="6.84" length="19.40" friendlyPos="1"/>
        <access lane="44316350#2_0" pos="4.82" length="17.02" friendlyPos="1"/>
        <access lane="44316350#3_0" pos="0.00" length="18.26" friendlyPos="1"/>
        <access lane="541424666#1_0" pos="9.11" length="0.12" friendlyPos="1"/>
    </trainStop>
    <trainStop id="562620810" name="Moolchand" lane="188245893#2_0" startPos="2804.36" endPos="3004.36" friendlyPos="true" lines="6">
        <access lane="28121535_0" pos="92.92" length="106.43" friendlyPos="1"/>
        <access lane="44316330_0" pos="307.09" length="87.27" friendlyPos="1"/>
        <access lane="44316351#1_0" pos="101.52" length="208.54" friendlyPos="1"/>
        <access lane="556741444#1_0" pos="52.77" length="195.44" friendlyPos="1"/>
        <access lane="769588006_0" pos="133.67" length="243.59" friendlyPos="1"/>
    </trainStop>
    <busStop id="5701997798" name="Sukhdev Vihar" lane="265903506#19_0" startPos="11.63" endPos="26.63" friendlyPos="true" lines="623"/>
    <busStop id="5715392714" name="Lodhi Colony" lane="766036523#3_0" startPos="63.64" endPos="78.64" friendlyPos="true" lines="794"/>
    <busStop id="5732542138" name="Safdarjung Airport" lane="31756484#3_0" startPos="21.76" endPos="36.76" friendlyPos="true" lines="794"/>
    <busStop id="5732543211" name="A.I.I.M.S." lane="654175709#3_0" startPos="7.64" endPos="22.64" friendlyPos="true" lines="519">
        <access lane="-343631767#0_0" pos="1.02" length="38.37" friendlyPos="1"/>
        <access lane="1275541851#1_0" pos="0.00" length="58.65" friendlyPos="1"/>
        <access lane="343631767#0_0" pos="0.00" length="36.14" friendlyPos="1"/>
        <access lane="343631767#2_0" pos="0.00" length="57.42" friendlyPos="1"/>
        <access lane="708790367_0" pos="45.98" length="0.26" friendlyPos="1"/>
    </busStop>
    <busStop id="5732543997" name="Safdarjung Madrasa" lane="31756484#10_0" startPos="159.54" endPos="174.54" friendlyPos="true" lines="794"/>
    <busStop id="5732544103" name="Shahjahan Road UPSC" lane="296963058#4_0" startPos="0.00" endPos="15.00" friendlyPos="true" lines="166 623"/>
    <trainStop id="5777601886" name="Green Park" lane="610022378#0_0" startPos="5370.88" endPos="5570.88" friendlyPos="true" lines="2"/>
    <trainStop id="5777601896" name="Hauz Khas (Yellow Line)" lane="610022378#0_0" startPos="3820.07" endPos="4020.07" friendlyPos="true" lines="2"/>
    <trainStop id="5777601903" name="Malviya Nagar" lane="610022378#0_0" startPos="2106.35" endPos="2306.35" friendlyPos="true" lines="2"/>
    <trainStop id="5777602002" name="Patel Chowk" lane="610022433#2_0" startPos="5236.73" endPos="5436.73" friendlyPos="true" lines="2"/>
    <trainStop id="5777602007" name="Central Secretariat" lane="610022433#2_0" startPos="4411.38" endPos="4611.38" friendlyPos="true" lines="2"/>
    <trainStop id="5777602008" name="Seva Teerth" lane="610022433#2_0" startPos="3704.00" endPos="3904.00" friendlyPos="true" lines="2">
        <access lane="-1123521082_0" pos="121.13" length="159.91" friendlyPos="1"/>
        <access lane="24577391_0" pos="12.97" length="112.44" friendlyPos="1"/>
        <access lane="24577393_0" pos="531.34" length="148.81" friendlyPos="1"/>
        <access lane="44352050#1_0" pos="181.59" length="10.33" friendlyPos="1"/>
        <access lane="722443696#0_0" pos="71.90" length="23.98" friendlyPos="1"/>
    </trainStop>
    <trainStop id="5777602010" name="Lok Kalyan Marg" lane="610022433#2_0" startPos="2351.91" endPos="2551.91" friendlyPos="true" lines="2">
        <access lane="1271885130_0" pos="0.00" length="23.49" friendlyPos="1"/>
        <access lane="370543239#8_0" pos="23.16" length="11.16" friendlyPos="1"/>
        <access lane="37222915#0_0" pos="0.00" length="28.00" friendlyPos="1"/>
        <access lane="683766461_0" pos="10.90" length="18.44" friendlyPos="1"/>
        <access lane="749606301_0" pos="0.00" length="17.90" friendlyPos="1"/>
    </trainStop>
    <trainStop id="5777602013" name="Jor Bagh" lane="610022433#2_0" startPos="1141.87" endPos="1341.87" friendlyPos="true" lines="2">
        <access lane="265032208#1_0" pos="165.23" length="24.34" friendlyPos="1"/>
        <access lane="31756484#8_0" pos="43.80" length="2.07" friendlyPos="1"/>
        <access lane="31756484#9_0" pos="0.00" length="32.60" friendlyPos="1"/>
        <access lane="686635839#3_0" pos="26.87" length="14.24" friendlyPos="1"/>
        <access lane="716995732_0" pos="0.00" length="30.71" friendlyPos="1"/>
    </trainStop>
    <trainStop id="5777602018" name="Dilli Haat - INA" lane="610022433#1_0" startPos="0.00" endPos="198.93" friendlyPos="true" lines="2">
        <access lane="-669010727#2_0" pos="84.98" length="0.89" friendlyPos="1"/>
        <access lane="662973182_0" pos="38.64" length="20.39" friendlyPos="1"/>
        <access lane="662973186_0" pos="0.00" length="23.71" friendlyPos="1"/>
        <access lane="669010727#2_0" pos="29.11" length="3.91" friendlyPos="1"/>
        <access lane="676708026#1_0" pos="59.35" length="15.04" friendlyPos="1"/>
    </trainStop>
    <trainStop id="5777602034" name="A.I.I.M.S." lane="610022378#1_0" startPos="249.21" endPos="449.21" friendlyPos="true" lines="2">
        <access lane="-343631767#0_0" pos="0.69" length="0.64" friendlyPos="1"/>
        <access lane="-343631767#2_0" pos="22.12" length="25.54" friendlyPos="1"/>
        <access lane="1275541851#1_0" pos="0.00" length="22.38" friendlyPos="1"/>
        <access lane="343631767#0_0" pos="0.33" length="3.64" friendlyPos="1"/>
        <access lane="708790367_0" pos="25.21" length="23.49" friendlyPos="1"/>
    </trainStop>
    <trainStop id="5777613870" name="Noida Sector 18" lane="610024005_0" startPos="908.59" endPos="1108.59" friendlyPos="true"/>
    <trainStop id="5777613877" name="Noida Sector 16" lane="610024005_0" startPos="2058.36" endPos="2258.36" friendlyPos="true"/>
    <trainStop id="5777613883" name="Noida Sector 15" lane="610024005_0" startPos="3027.90" endPos="3227.90" friendlyPos="true"/>
    <trainStop id="5777613898" name="New Ashok Nagar" lane="610024005_0" startPos="4261.42" endPos="4461.42" friendlyPos="true"/>
    <trainStop id="5777613909" name="Mayur Vihar Extension" lane="610024005_0" startPos="5283.16" endPos="5483.16" friendlyPos="true">
        <access lane="-344468682#0_0" pos="365.62" length="457.63" friendlyPos="1"/>
        <access lane="1501368603_0" pos="316.30" length="174.62" friendlyPos="1"/>
        <access lane="344468682#0_0" pos="217.28" length="462.43" friendlyPos="1"/>
    </trainStop>
    <trainStop id="5777613919" name="Mayur Vihar - I (Blue Line)" lane="610024005_0" startPos="6449.72" endPos="6649.72" friendlyPos="true">
        <access lane="1156111201#0_0" pos="29.89" length="26.27" friendlyPos="1"/>
        <access lane="1194008462_0" pos="0.00" length="26.57" friendlyPos="1"/>
        <access lane="696179893#0_0" pos="0.10" length="28.48" friendlyPos="1"/>
        <access lane="696179893#1_0" pos="0.00" length="27.66" friendlyPos="1"/>
        <access lane="696179895_0" pos="4.68" length="19.49" friendlyPos="1"/>
    </trainStop>
    <trainStop id="5777613940" name="Akshardham" lane="610024005_0" startPos="8184.48" endPos="8384.48" friendlyPos="true"/>
    <trainStop id="5777629158" name="Jawaharlal Nehru Stadium" lane="610024711#1_0" startPos="0.00" endPos="200.00" friendlyPos="true" lines="6">
        <access lane="-1190157697_0" pos="35.51" length="89.12" friendlyPos="1"/>
        <access lane="1253513756#2_0" pos="25.63" length="71.77" friendlyPos="1"/>
        <access lane="169222358#3_0" pos="56.08" length="22.60" friendlyPos="1"/>
        <access lane="169222358#4_0" pos="0.00" length="77.84" friendlyPos="1"/>
        <access lane="169222364#5_0" pos="107.37" length="37.16" friendlyPos="1"/>
    </trainStop>
    <trainStop id="5777629164" name="Khan Market" lane="610024711#2_0" startPos="319.08" endPos="519.08" friendlyPos="true" lines="6">
        <access lane="-24577367#8_0" pos="0.00" length="22.95" friendlyPos="1"/>
        <access lane="1077595194_0" pos="80.93" length="5.14" friendlyPos="1"/>
        <access lane="1077595197_0" pos="0.00" length="27.68" friendlyPos="1"/>
        <access lane="1126646523_0" pos="0.00" length="20.00" friendlyPos="1"/>
        <access lane="24577367#8_0" pos="0.20" length="31.14" friendlyPos="1"/>
    </trainStop>
    <trainStop id="5777629169" name="Central Secretariat" lane="610024711#2_0" startPos="2595.64" endPos="2795.64" friendlyPos="true" lines="6"/>
    <trainStop id="5777629177" name="Janpath" lane="610024711#2_0" startPos="3862.24" endPos="4062.24" friendlyPos="true" lines="6"/>
    <trainStop id="5777629183" name="Mandi House" lane="610024711#2_0" startPos="5534.69" endPos="5734.69" friendlyPos="true" lines="6"/>
    <trainStop id="5777629192" name="ITO" lane="610024711#2_0" startPos="6335.49" endPos="6535.49" friendlyPos="true" lines="6"/>
    <trainStop id="5777629197" name="Delhi Gate" lane="610024711#2_0" startPos="7562.43" endPos="7762.43" friendlyPos="true" lines="6"/>
    <trainStop id="5777629203" name="Jama Masjid" lane="610024711#2_0" startPos="8825.44" endPos="9025.44" friendlyPos="true" lines="6"/>
    <trainStop id="5777629235" name="Kailash Colony" lane="610024714#1_0" startPos="0.00" endPos="200.00" friendlyPos="true" lines="6"/>
    <trainStop id="5777629559" name="Lajpat Nagar (Violet Line)" lane="610024714#1_0" startPos="2069.18" endPos="2269.18" friendlyPos="true" lines="6">
        <access lane="1511284564#0_0" pos="0.00" length="27.52" friendlyPos="1"/>
        <access lane="38116088_0" pos="1.37" length="20.76" friendlyPos="1"/>
        <access lane="44316350#2_0" pos="4.82" length="10.14" friendlyPos="1"/>
        <access lane="44316350#3_0" pos="0.00" length="11.68" friendlyPos="1"/>
        <access lane="541424666#1_0" pos="14.22" length="0.79" friendlyPos="1"/>
    </trainStop>
    <trainStop id="5777629829" name="Jangpura" lane="610024714#1_0" startPos="3508.62" endPos="3708.62" friendlyPos="true" lines="6">
        <access lane="1152735263_0" pos="0.00" length="42.69" friendlyPos="1"/>
        <access lane="1263294330#0_0" pos="9.91" length="34.62" friendlyPos="1"/>
        <access lane="1410923199_0" pos="0.00" length="46.61" friendlyPos="1"/>
        <access lane="1410923212_0" pos="0.00" length="12.28" friendlyPos="1"/>
        <access lane="344426059#0_0" pos="72.70" length="37.78" friendlyPos="1"/>
    </trainStop>
    <trainStop id="5777629833" name="Nehru Place" lane="610024714#0_0" startPos="0.00" endPos="200.00" friendlyPos="true" lines="6"/>
    <trainStop id="5777630298" name="Sarai Kale Khan - Nizamuddin" lane="615615096#1_0" startPos="2529.56" endPos="2729.56" friendlyPos="true" lines="7">
        <access lane="-1075308612#1_0" pos="12.77" length="5.82" friendlyPos="1"/>
        <access lane="-1075308612#2_0" pos="3.19" length="27.31" friendlyPos="1"/>
        <access lane="1075308612#1_0" pos="14.08" length="10.62" friendlyPos="1"/>
        <access lane="1465361535_0" pos="0.43" length="24.94" friendlyPos="1"/>
        <access lane="1465361536_0" pos="3.03" length="22.08" friendlyPos="1"/>
    </trainStop>
    <trainStop id="5777630323" name="South Extension" lane="610024736_0" startPos="4360.75" endPos="4560.75" friendlyPos="true" lines="7">
        <access lane="-1305032092#1_0" pos="140.94" length="19.47" friendlyPos="1"/>
        <access lane="1123517760_0" pos="10.29" length="54.15" friendlyPos="1"/>