<?xml version="1.0" encoding="UTF-8"?>

<!-- generated on 2026-07-14 15:54:24.366863 by Eclipse SUMO randomTrips.py v1_27_1+0000-7717f2379d9
<configuration>
    <net-file value="D:\SUMO_Workspace\Projects\Ai-traffic-Control-System\maps\osm\osm.net.xml.gz"/>
    <output-trip-file value="D:\SUMO_Workspace\Projects\Ai-traffic-Control-System\maps\osm\generated_demand\peak.trips.xml"/>
    <prefix value="peak_"/>
    <edge-permission value="passenger"/>
    <seed value="404"/>
    <min-distance value="300.0"/>
    <remove-loops value="True"/>
    <begin value="2700.0"/>
    <end value="3300.0"/>
    <insertion-rate value="1200.0"/>
    <random-depart value="True"/>
</configuration>
-->

<routes xmlns:xsi="http://www.w3.org/2001/XMLSchema-instance" xsi:noNamespaceSchemaLocation="http://sumo.dlr.de/xsd/routes_file.xsd">
    <trip id="peak_0" depart="2703.00" from="563791811#7" to="612734126#1"/>
    <trip id="peak_1" depart="2704.00" from="-24584385#0" to="563679836#9"/>
    <trip id="peak_2" depart="2705.00" from="24584377#8" to="24577096#13"/>
    <trip id="peak_3" depart="2706.00" from="581245357" to="998790356#7"/>
    <trip id="peak_4" depart="2707.00" from="-24577106#2" to="24584378#2"/>
    <trip id="peak_5" depart="2708.00" from="-44277694#4" to="24583584#2"/>
    <trip id="peak_6" depart="2709.00" from="998790354#7" to="712992074#0"/>
    <trip id="peak_7" depart="2711.00" from="-24584383#3" to="-278577245#0"/>
    <trip id="peak_8" depart="2714.00" from="24584383#4" to="-24584384#6"/>
    <trip id="peak_9" depart="2715.00" from="24577114#2" to="24583327#0"/>
    <trip id="peak_10" depart="2715.00" from="-675478334#0" to="-24583487#8"/>
    <trip id="peak_11" depart="2730.00" from="24583587#1" to="-24584418#0"/>
    <trip id="peak_12" depart="2732.00" from="998790362#0" to="-1072960944#0"/>
    <trip id="peak_13" depart="2734.00" from="998790353#1" to="44257669#2"/>
    <trip id="peak_14" depart="2737.00" from="1053851211#12" to="24583487#9"/>
    <trip id="peak_15" depart="2741.00" from="24583488#2" to="48964552#7"/>
    <trip id="peak_16" depart="2747.00" from="24577115#0" to="24583590#4"/>
    <trip id="peak_17" depart="2749.00" from="686673952#2" to="24584424#0"/>
    <trip id="peak_18" depart="2751.00" from="24583768#2" to="712992071#8"/>
    <trip id="peak_19" depart="2755.00" from="1438583474#8" to="-80926764#3"/>
    <trip id="peak_20" depart="2756.00" from="-24583593#6" to="24583584#1"/>
    <trip id="peak_21" depart="2758.00" from="-998790358#9" to="611866592#2"/>
    <trip id="peak_22" depart="2759.00" from="24577097#5" to="-24583587#1"/>
    <trip id="peak_23" depart="2760.00" from="686664590#1" to="370672194#7"/>
    <trip id="peak_24" depart="2760.00" from="-24577118#0" to="563679836#2"/>
    <trip id="peak_25" depart="2764.00" from="24584392#4" to="563974735#7"/>
    <trip id="peak_26" depart="2773.00" from="553090004#0" to="537797267#1"/>
    <trip id="peak_27" depart="2774.00" from="717907807#0" to="563679820#5"/>
    <trip id="peak_28" depart="2775.00" from="-695576804#1" to="-995792406#7"/>
    <trip id="peak_29" depart="2776.00" from="-44277694#0" to="24584420#6"/>
    <trip id="peak_30" depart="2777.00" from="577982260#2" to="760536611#2"/>
    <trip id="peak_31" depart="2777.00" from="24584420#3" to="-24583489#8"/>
    <trip id="peak_32" depart="2778.00" from="371342951#2" to="998790358#17"/>
    <trip id="peak_33" depart="2783.00" from="-1122226239#0" to="596373338#0"/>
    <trip id="peak_34" depart="2790.00" from="1242128093" to="24584414#2"/>
    <trip id="peak_35" depart="2797.00" from="24584511#0" to="-24584421#1"/>
    <trip id="peak_36" depart="2804.00" from="24563432#1" to="712992071#6"/>
    <trip id="peak_37" depart="2804.00" from="24584377#3" to="1122230047#0"/>
    <trip id="peak_38" depart="2808.00" from="-370672194#6" to="996679779#7"/>
    <trip id="peak_39" depart="2813.00" from="-1072960944#1" to="998790355#1"/>
    <trip id="peak_40" depart="2814.00" from="24584424#4" to="1066077571#3"/>
    <trip id="peak_41" depart="2823.00" from="-675478334#9" to="24577114#3"/>
    <trip id="peak_42" depart="2823.00" from="563974735#0" to="-675478334#8"/>
    <trip id="peak_43" depart="2824.00" from="-24584412" to="993538729"/>
    <trip id="peak_44" depart="2827.00" from="-1122026496#0" to="24583587#1"/>
    <trip id="peak_45" depart="2841.00" from="24584386" to="-24577118#4"/>
    <trip id="peak_46" depart="2845.00" from="-24583487#0" to="709281061#2"/>
    <trip id="peak_47" depart="2851.00" from="24584383#2" to="24577097#6"/>
    <trip id="peak_48" depart="2858.00" from="1053851211#11" to="675478334#7"/>
    <trip id="peak_49" depart="2859.00" from="24584413" to="-708488754#2"/>
    <trip id="peak_50" depart="2860.00" from="-24583487#5" to="24577097#0"/>
    <trip id="peak_51" depart="2865.00" from="24584380#1" to="-1074157520"/>
    <trip id="peak_52" depart="2865.00" from="-370672194#7" to="-24583487#5"/>
    <trip id="peak_53" depart="2866.00" from="-24584384#3" to="563679836#6"/>
    <trip id="peak_54" depart="2873.00" from="24577120" to="24583593#0"/>
    <trip id="peak_55" depart="2874.00" from="998790358#10" to="1066619122#0"/>
    <trip id="peak_56" depart="2877.00" from="581245363#3" to="1121186660#1"/>
    <trip id="peak_57" depart="2881.00" from="24577131" to="-278577245#4"/>
    <trip id="peak_58" depart="2883.00" from="24577095#8" to="1537111951"/>
    <trip id="peak_59" depart="2883.00" from="706970966#1" to="1307222667#1"/>
    <trip id="peak_60" depart="2883.00" from="-1438583474#7" to="-562499724#9"/>
    <trip id="peak_61" depart="2884.00" from="24577108#1" to="1374632731"/>
    <trip id="peak_62" depart="2884.00" from="998790358#9" to="1053851211#2"/>
    <trip id="peak_63" depart="2893.00" from="447141155#0" to="24583592#1"/>
    <trip id="peak_64" depart="2895.00" from="24584386" to="-1121186669#2"/>
    <trip id="peak_65" depart="2895.00" from="712992074#10" to="80926781#1"/>
    <trip id="peak_66" depart="2901.00" from="996679779#4" to="-1072960944#0"/>
    <trip id="peak_67" depart="2901.00" from="164786644#0" to="1072963717#0"/>
    <trip id="peak_68" depart="2902.00" from="24583590#3" to="24577113#3"/>
    <trip id="peak_69" depart="2904.00" from="-24583592#5" to="1072954053#0"/>
    <trip id="peak_70" depart="2905.00" from="-24583594#0" to="-80926778#1"/>
    <trip id="peak_71" depart="2906.00" from="24577095#0" to="1073010465"/>
    <trip id="peak_72" depart="2909.00" from="-24583592#1" to="563679836#4"/>
    <trip id="peak_73" depart="2910.00" from="24583495#4" to="998790354#1"/>
    <trip id="peak_74" depart="2915.00" from="-24584420#3" to="24583339#2"/>
    <trip id="peak_75" depart="2916.00" from="778199266#4" to="24584414#1"/>
    <trip id="peak_76" depart="2917.00" from="24583586#1" to="996679779#1"/>
    <trip id="peak_77" depart="2918.00" from="537797266#1" to="74851428#5"/>
    <trip id="peak_78" depart="2926.00" from="24584391#2" to="-370672194#7"/>
    <trip id="peak_79" depart="2928.00" from="24577118#1" to="24577114#1"/>
    <trip id="peak_80" depart="2933.00" from="48964552#1" to="562499724#19"/>
    <trip id="peak_81" depart="2933.00" from="24584391#0" to="-998790358#14"/>
    <trip id="peak_82" depart="2934.00" from="-24577118#2" to="1053851211#0"/>
    <trip id="peak_83" depart="2935.00" from="24584414#3" to="24577096#6"/>
    <trip id="peak_84" depart="2942.00" from="44352050#0" to="998790355#1"/>
    <trip id="peak_85" depart="2945.00" from="24584383#4" to="80921410#1"/>
    <trip id="peak_86" depart="2948.00" from="-577982260#6" to="-577982260#0"/>
    <trip id="peak_87" depart="2957.00" from="-142216383" to="80926782"/>
    <trip id="peak_88" depart="2957.00" from="1053851214" to="562499724#17"/>
    <trip id="peak_89" depart="2967.00" from="-577982260#3" to="24577113#2"/>
    <trip id="peak_90" depart="2976.00" from="447141137#2" to="-24583495#9"/>
    <trip id="peak_91" depart="2976.00" from="680551210#2" to="563974730#4"/>
    <trip id="peak_92" depart="2977.00" from="-1122220363" to="-24584416#0"/>
    <trip id="peak_93" depart="2978.00" from="-24583584#0" to="24563431#0"/>
    <trip id="peak_94" depart="2979.00" from="563791811#3" to="1122220362#1"/>
    <trip id="peak_95" depart="2981.00" from="717907815" to="-562499724#18"/>
    <trip id="peak_96" depart="2981.00" from="370672194#3" to="-80926768#0"/>
    <trip id="peak_97" depart="2983.00" from="1122026496#0" to="563974730#5"/>
    <trip id="peak_98" depart="2992.00" from="-1122026496#1" to="24584394#0"/>
    <trip id="peak_99" depart="2993.00" from="-24583593#5" to="-24584418#2"/>
    <trip id="peak_100" depart="2993.00" from="-562499724#18" to="711421326#0"/>
    <trip id="peak_101" depart="2998.00" from="1181942240#0" to="714990514#0"/>
    <trip id="peak_102" depart="2998.00" from="24583495#5" to="563679836#2"/>
    <trip id="peak_103" depart="3002.00" from="80926764#5" to="717907814#2"/>
    <trip id="peak_104" depart="3003.00" from="24583334#4" to="-24584416#4"/>
    <trip id="peak_105" depart="3010.00" from="371342951#5" to="80926773#0"/>
    <trip id="peak_106" depart="3015.00" from="714990513#0" to="-562499724#11"/>
    <trip id="peak_107" depart="3018.00" from="24584511#7" to="-577982260#2"/>
    <trip id="peak_108" depart="3018.00" from="686684499" to="116046168#1"/>
    <trip id="peak_109" depart="3019.00" from="1271156421#1" to="712992071#12"/>
    <trip id="peak_110" depart="3022.00" from="577982260#6" to="-562499724#15"/>
    <trip id="peak_111" depart="3025.00" from="24577095#5" to="996679779#7"/>
    <trip id="peak_112" depart="3030.00" from="447141143#0" to="-1074764284#1"/>
    <trip id="peak_113" depart="3038.00" from="998790358#0" to="1074157520"/>
    <trip id="peak_114" depart="3039.00" from="-24577108#1" to="695576804#1"/>
    <trip id="peak_115" depart="3043.00" from="-1074764284#1" to="-278577245#3"/>
    <trip id="peak_116" depart="3043.00" from="1327208477#0" to="80926778#4"/>
    <trip id="peak_117" depart="3044.00" from="1066077571#1" to="80921410#0"/>
    <trip id="peak_118" depart="3045.00" from="-278577245#5" to="686673952#1"/>
    <trip id="peak_119" depart="3051.00" from="-24584418#1" to="24583487#9"/>
    <trip id="peak_120" depart="3052.00" from="995792406#1" to="-235103610#3"/>
    <trip id="peak_121" depart="3057.00" from="-24583495#5" to="-995792406#5"/>
    <trip id="peak_122" depart="3058.00" from="24583590#2" to="24584377#6"/>
    <trip id="peak_123" depart="3059.00" from="-24584416#3" to="-998790358#9"/>
    <trip id="peak_124" depart="3059.00" from="80926781#1" to="-370672194#11"/>
    <trip id="peak_125" depart="3059.00" from="370545701#0" to="116046167#4"/>
    <trip id="peak_126" depart="3065.00" from="24584511#9" to="1066077571#3"/>
    <trip id="peak_127" depart="3066.00" from="1072954052#2" to="749606293"/>
    <trip id="peak_128" depart="3085.00" from="278577243#1" to="711421326#2"/>
    <trip id="peak_129" depart="3090.00" from="48964552#7" to="700261790#1"/>
    <trip id="peak_130" depart="3093.00" from="996679779#7" to="-24584409#3"/>
    <trip id="peak_131" depart="3096.00" from="24584418#0" to="24583596#1"/>
    <trip id="peak_132" depart="3104.00" from="722082946#1" to="1073010465"/>
    <trip id="peak_133" depart="3105.00" from="1438583474#3" to="24577113#2"/>
    <trip id="peak_134" depart="3112.00" from="138947059#1" to="-80921410#0"/>
    <trip id="peak_135" depart="3113.00" from="563975284#0" to="562499724#16"/>
    <trip id="peak_136" depart="3114.00" from="24584377#2" to="1271156413#0"/>
    <trip id="peak_137" depart="3115.00" from="1533060172#1" to="-24584418#2"/>
    <trip id="peak_138" depart="3116.00" from="-80926781#3" to="570413587#0"/>
    <trip id="peak_139" depart="3119.00" from="80926764#5" to="611866591"/>
    <trip id="peak_140" depart="3128.00" from="24584384#5" to="24584416#1"/>
    <trip id="peak_141" depart="3129.00" from="80678182#2" to="-24577106#1"/>
    <trip id="peak_142" depart="3137.00" from="712992071#8" to="570616026#3"/>
    <trip id="peak_143" depart="3139.00" from="23134746#0" to="447141137#2"/>
    <trip id="peak_144" depart="3139.00" from="-24584511#8" to="48964552#8"/>
    <trip id="peak_145" depart="3141.00" from="24583587#3" to="24583593#0"/>
    <trip id="peak_146" depart="3148.00" from="717907817#2" to="563679836#12"/>
    <trip id="peak_147" depart="3150.00" from="24577096#6" to="24584409#1"/>
    <trip id="peak_148" depart="3151.00" from="712992071#4" to="695576804#1"/>
    <trip id="peak_149" depart="3153.00" from="563791811#7" to="720546573#1"/>
    <trip id="peak_150" depart="3156.00" from="-80678182#0" to="-1122257058"/>
    <trip id="peak_151" depart="3165.00" from="-1122220358#1" to="370672194#3"/>
    <trip id="peak_152" depart="3166.00" from="611866592#1" to="995792405"/>
    <trip id="peak_153" depart="3167.00" from="-1438583474#11" to="116046167#3"/>
    <trip id="peak_154" depart="3173.00" from="995793692#1" to="447141137#1"/>
    <trip id="peak_155" depart="3173.00" from="686664590#0" to="-24584418#1"/>
    <trip id="peak_156" depart="3175.00" from="1471934276" to="675478334#3"/>
    <trip id="peak_157" depart="3182.00" from="235103610#3" to="24583327#0"/>
    <trip id="peak_158" depart="3190.00" from="722082946#1" to="562499724#19"/>
    <trip id="peak_159" depart="3192.00" from="-24583491#3" to="44257669#0"/>
    <trip id="peak_160" depart="3194.00" from="717907817#1" to="-998790354#5"/>
    <trip id="peak_161" depart="3199.00" from="996679779#2" to="-998790354#1"/>
    <trip id="peak_162" depart="3200.00" from="709276135#1" to="-44277694#4"/>
    <trip id="peak_163" depart="3203.00" from="709276135#5" to="562499724#4"/>
    <trip id="peak_164" depart="3205.00" from="-1438583474#1" to="24577360#3"/>
    <trip id="peak_165" depart="3206.00" from="562499724#1" to="611866592#2"/>
    <trip id="peak_166" depart="3211.00" from="1066077571#3" to="760817631#5"/>
    <trip id="peak_167" depart="3212.00" from="563791811#7" to="24583584#1"/>
    <trip id="peak_168" depart="3214.00" from="562499724#20" to="24583327#15"/>
    <trip id="peak_169" depart="3216.00" from="24584409#1" to="709281061#1"/>
    <trip id="peak_170" depart="3219.00" from="24583491#3" to="717907807#2"/>
    <trip id="peak_171" depart="3220.00" from="563679836#14" to="717907817#4"/>
    <trip id="peak_172" depart="3221.00" from="-80926778#2" to="-24583592#6"/>
    <trip id="peak_173" depart="3223.00" from="570413594" to="1074764284#1"/>
    <trip id="peak_174" depart="3223.00" from="-1072963716#0" to="996679779#5"/>
    <trip id="peak_175" depart="3225.00" from="24583489#4" to="-24583589"/>
    <trip id="peak_176" depart="3230.00" from="1438583474#6" to="24583339#5"/>
    <trip id="peak_177" depart="3231.00" from="1066077571#3" to="581245363#0"/>
    <trip id="peak_178" depart="3233.00" from="-24584421#0" to="998790356#7"/>
    <trip id="peak_179" depart="3234.00" from="1537111946#1" to="-24583769#0"/>
    <trip id="peak_180" depart="3235.00" from="-24583489#4" to="-1121186669#0"/>
    <trip id="peak_181" depart="3236.00" from="1122274850" to="-998790354#2"/>
    <trip id="peak_182" depart="3238.00" from="-1053851211#0" to="-1307222666#0"/>
    <trip id="peak_183" depart="3239.00" from="760817631#4" to="1121186661"/>
    <trip id="peak_184" depart="3241.00" from="1072960946#4" to="612734126#1"/>
    <trip id="peak_185" depart="3242.00" from="24577115#1" to="-611866592#2"/>
    <trip id="peak_186" depart="3247.00" from="711421334#9" to="998790358#10"/>
    <trip id="peak_187" depart="3257.00" from="1271156412#1" to="-24577108#1"/>
    <trip id="peak_188" depart="3258.00" from="-24584421#1" to="-24583489#1"/>
    <trip id="peak_189" depart="3261.00" from="24577095#3" to="-998790358#4"/>
    <trip id="peak_190" depart="3263.00" from="714990513#1" to="665150699#2"/>
    <trip id="peak_191" depart="3266.00" from="-537797267#3" to="1271156413#1"/>
    <trip id="peak_192" depart="3270.00" from="296963058#2" to="563679821#1"/>
    <trip id="peak_193" depart="3278.00" from="23134746#1" to="370672194#0"/>
    <trip id="peak_194" depart="3279.00" from="-998790356#6" to="-24583770"/>
    <trip id="peak_195" depart="3283.00" from="-24583769#0" to="24584418#1"/>
    <trip id="peak_196" depart="3290.00" from="31756488" to="-370672194#4"/>
    <trip id="peak_197" depart="3292.00" from="24584420#0" to="24577096#14"/>
    <trip id="peak_198" depart="3295.00" from="-24583489#6" to="712992071#7"/>
    <trip id="peak_199" depart="3297.00" from="-1271156421#2" to="563679836#5"/>
</routes>
