<?xml version="1.0" encoding="UTF-8"?>

<!-- generated on 2026-07-21 18:20:10.722188 by Eclipse SUMO osmWebWizard.py v1_27_1+0000-7717f2379d9
<configuration>
    <net-file value="C:\Users\sudha\Sumo\2026-07-21-18-16-49\osm.net.xml.gz"/>
    <output-trip-file value="C:\Users\sudha\Sumo\2026-07-21-18-16-49\osm.motorcycle.trips.xml"/>
    <route-file value="C:\Users\sudha\Sumo\2026-07-21-18-16-49\osm.motorcycle.rou.xml"/>
    <prefix value="motorcycle"/>
    <trip-attributes value="departLane=&quot;best&quot;"/>
    <fringe-start-attributes value="departSpeed=&quot;max&quot;"/>
    <vehicle-class value="motorcycle"/>
    <fringe-factor value="2"/>
    <edge-permission value="motorcycle"/>
    <via-edge-types value="highway.motorway,highway.motorway_link,highway.trunk_link,highway.primary_link,highway.secondary_link,highway.tertiary_link"/>
    <seed value="43"/>
    <max-distance value="1200.0"/>
    <remove-loops value="True"/>
    <insertion-density value="4.0"/>
</configuration>
-->

<routes xmlns:xsi="http://www.w3.org/2001/XMLSchema-instance" xsi:noNamespaceSchemaLocation="http://sumo.dlr.de/xsd/routes_file.xsd">
    <vType id="motorcycle_motorcycle" vClass="motorcycle"/>
    <trip id="motorcycle0" depart="0.00" from="-1075090207" to="24577416#1" departLane="best" type="motorcycle_motorcycle"/>
    <trip id="motorcycle1" depart="0.81" from="-777918879#6" to="-169421699#5" departLane="best" type="motorcycle_motorcycle"/>
    <trip id="motorcycle2" depart="1.62" from="164702314#5" to="421287877#0" departLane="best" type="motorcycle_motorcycle"/>
    <trip id="motorcycle3" depart="2.43" from="1163938863#2" to="265763301#3" departLane="best" type="motorcycle_motorcycle"/>
    <trip id="motorcycle4" depart="3.23" from="1306750873" to="-691131114#1" departLane="best" type="motorcycle_motorcycle" departSpeed="max"/>
    <trip id="motorcycle5" depart="4.04" from="773159638#4" to="1254857434#6" departLane="best" type="motorcycle_motorcycle"/>
    <trip id="motorcycle6" depart="4.85" from="-1187747808" to="205080617#4" departLane="best" type="motorcycle_motorcycle"/>
    <trip id="motorcycle7" depart="5.66" from="28121486#4" to="80950098#7" departLane="best" type="motorcycle_motorcycle"/>
    <trip id="motorcycle8" depart="6.47" from="-220385651#5" to="706609027#1" departLane="best" type="motorcycle_motorcycle"/>
    <trip id="motorcycle9" depart="7.28" from="-706298748" to="235103536#0" departLane="best" type="motorcycle_motorcycle" departSpeed="max"/>
    <trip id="motorcycle10" depart="8.09" from="-169413618#9" to="-265763297#5" departLane="best" type="motorcycle_motorcycle"/>
    <trip id="motorcycle11" depart="8.90" from="-24577416#5" to="1075090208" departLane="best" type="motorcycle_motorcycle"/>
    <trip id="motorcycle12" depart="9.70" from="1187744411" to="167468598#2" departLane="best" type="motorcycle_motorcycle"/>
    <trip id="motorcycle13" depart="10.51" from="-164910162#9" to="-1057069174" departLane="best" type="motorcycle_motorcycle"/>
    <trip id="motorcycle14" depart="11.32" from="1071520557" to="1071178129#2" departLane="best" type="motorcycle_motorcycle"/>
    <trip id="motorcycle15" depart="12.13" from="660123522#2" to="-28153880#3" departLane="best" type="motorcycle_motorcycle"/>
    <trip id="motorcycle16" depart="12.94" from="-169413606#1" to="-38116073#4" departLane="best" type="motorcycle_motorcycle"/>
    <trip id="motorcycle17" depart="13.75" from="423593976#1" to="-423619321#0" departLane="best" type="motorcycle_motorcycle"/>
    <trip id="motorcycle18" depart="14.56" from="-1253234256#0" to="23151090#14" departLane="best" type="motorcycle_motorcycle"/>
    <trip id="motorcycle19" depart="15.37" from="-169413595#7" to="168901313#2" departLane="best" type="motorcycle_motorcycle"/>
    <trip id="motorcycle20" depart="16.17" from="660123527#0" to="696817949" departLane="best" type="motorcycle_motorcycle"/>
    <trip id="motorcycle21" depart="16.98" from="417157125#10" to="168298463#0" departLane="best" type="motorcycle_motorcycle"/>
    <trip id="motorcycle22" depart="17.79" from="1057070268#0" to="1495477899#9" departLane="best" type="motorcycle_motorcycle" departSpeed="max"/>
    <trip id="motorcycle23" depart="18.60" from="-1057071813#1" to="423409326" departLane="best" type="motorcycle_motorcycle"/>
    <trip id="motorcycle24" depart="19.41" from="202800231" to="-23151090#7" departLane="best" type="motorcycle_motorcycle"/>
    <trip id="motorcycle25" depart="20.22" from="-340394250#1" to="717023394#2" departLane="best" type="motorcycle_motorcycle"/>
    <trip id="motorcycle26" depart="21.03" from="-421285589" to="421427824" departLane="best" type="motorcycle_motorcycle"/>
    <trip id="motorcycle27" depart="21.83" from="112102244#4" to="1187268496#0" departLane="best" type="motorcycle_motorcycle"/>
    <trip id="motorcycle28" depart="22.64" from="1218724198#0" to="-423409334#1" departLane="best" type="motorcycle_motorcycle"/>
    <trip id="motorcycle29" depart="23.45" from="-421280699#3" to="-421280687#1" departLane="best" type="motorcycle_motorcycle"/>
    <trip id="motorcycle30" depart="24.26" from="-28153848#9" to="1057070263" departLane="best" type="motorcycle_motorcycle"/>
    <trip id="motorcycle31" depart="25.07" from="-1071531435" to="80950104#3" departLane="best" type="motorcycle_motorcycle"/>
    <trip id="motorcycle32" depart="25.88" from="-23151088#8" to="-1057070268#0" departLane="best" type="motorcycle_motorcycle"/>
    <trip id="motorcycle33" depart="26.69" from="23151090#36" to="38116094#5" departLane="best" type="motorcycle_motorcycle"/>
    <trip id="motorcycle34" depart="27.50" from="533569861#0" to="-672161238#4" departLane="best" type="motorcycle_motorcycle"/>
    <trip id="motorcycle35" depart="28.30" from="-663067894#2" to="717023393#0" departLane="best" type="motorcycle_motorcycle"/>
    <trip id="motorcycle36" depart="29.11" from="-718260926#2" to="1306348848" departLane="best" type="motorcycle_motorcycle" departSpeed="max"/>
    <trip id="motorcycle37" depart="29.92" from="-1489755472" to="676512406#4" departLane="best" type="motorcycle_motorcycle"/>
    <trip id="motorcycle38" depart="30.73" from="-686616623#2" to="-527703974#0" departLane="best" type="motorcycle_motorcycle"/>
    <trip id="motorcycle39" depart="31.54" from="-1132736791" to="-1443697161" departLane="best" type="motorcycle_motorcycle"/>
    <trip id="motorcycle40" depart="32.35" from="660123523#2" to="-560895965" departLane="best" type="motorcycle_motorcycle"/>
    <trip id="motorcycle41" depart="33.16" from="-170000088#4" to="424007880#4" departLane="best" type="motorcycle_motorcycle"/>
    <trip id="motorcycle42" depart="33.96" from="-1076522332#0" to="-1057071793" departLane="best" type="motorcycle_motorcycle"/>
    <trip id="motorcycle43" depart="34.77" from="28121291#2" to="311742565#3" departLane="best" type="motorcycle_motorcycle"/>
    <trip id="motorcycle44" depart="35.58" from="-1255161707#2" to="-44315453#16" departLane="best" type="motorcycle_motorcycle"/>
    <trip id="motorcycle45" depart="36.39" from="1071504738" to="1057071808#2" departLane="best" type="motorcycle_motorcycle" departSpeed="max"/>
    <trip id="motorcycle46" depart="37.20" from="-1057070279" to="-152784363#0" departLane="best" type="motorcycle_motorcycle" departSpeed="max"/>
    <trip id="motorcycle47" depart="38.01" from="-686607120#1" to="169413596" departLane="best" type="motorcycle_motorcycle"/>
    <trip id="motorcycle48" depart="38.82" from="-23151096#0" to="1185427971" departLane="best" type="motorcycle_motorcycle"/>
    <trip id="motorcycle49" depart="39.63" from="1184943494#2" to="-168901307#1" departLane="best" type="motorcycle_motorcycle"/>
    <trip id="motorcycle50" depart="40.43" from="220381922#1" to="77339658" departLane="best" type="motorcycle_motorcycle"/>
    <trip id="motorcycle51" depart="41.24" from="-132087594#8" to="132087594#5" departLane="best" type="motorcycle_motorcycle"/>
    <trip id="motorcycle52" depart="42.05" from="423593976#3" to="-38116070" departLane="best" type="motorcycle_motorcycle"/>
    <trip id="motorcycle53" depart="42.86" from="-424021863" to="417010625#0" departLane="best" type="motorcycle_motorcycle"/>
    <trip id="motorcycle54" depart="43.67" from="-1183836790#3" to="1183836790#1" departLane="best" type="motorcycle_motorcycle"/>
    <trip id="motorcycle55" depart="44.48" from="-1057069632" to="-1123830791#1" departLane="best" type="motorcycle_motorcycle" departSpeed="max"/>
    <trip id="motorcycle56" depart="45.29" from="-1185427971" to="-417156347#19" departLane="best" type="motorcycle_motorcycle"/>
    <trip id="motorcycle57" depart="46.10" from="611866607" to="39013511#2" departLane="best" type="motorcycle_motorcycle"/>
    <trip id="motorcycle58" depart="46.90" from="-205080611#0" to="23151102#33" departLane="best" type="motorcycle_motorcycle"/>
    <trip id="motorcycle59" depart="47.71" from="-202800238#2" to="-1236532014#0" departLane="best" type="motorcycle_motorcycle"/>
    <trip id="motorcycle60" depart="48.52" from="-424036574" to="-167468618#1" departLane="best" type="motorcycle_motorcycle"/>
    <trip id="motorcycle61" depart="49.33" from="312031909#0" to="696302642#0" departLane="best" type="motorcycle_motorcycle" departSpeed="max"/>
    <trip id="motorcycle62" depart="50.14" from="-739750542#2" to="1236504892" departLane="best" type="motorcycle_motorcycle"/>
    <trip id="motorcycle63" depart="50.95" from="-447183178" to="-421285588" departLane="best" type="motorcycle_motorcycle" departSpeed="max"/>
    <trip id="motorcycle64" depart="51.76" from="-1057070291#2" to="686609582#1" departLane="best" type="motorcycle_motorcycle"/>
    <trip id="motorcycle65" depart="52.56" from="-80440840#10" to="-220385651#15" departLane="best" type="motorcycle_motorcycle"/>
    <trip id="motorcycle66" depart="53.37" from="220385652#8" to="-706609028#1" departLane="best" type="motorcycle_motorcycle"/>
    <trip id="motorcycle67" depart="54.18" from="653235647#1" to="-170000092#2" departLane="best" type="motorcycle_motorcycle"/>
    <trip id="motorcycle68" depart="54.99" from="1057069150#0" to="1057069660#1" departLane="best" type="motorcycle_motorcycle"/>
    <trip id="motorcycle69" depart="55.80" from="1238230918" to="-707027026#0" departLane="best" type="motorcycle_motorcycle" departSpeed="max"/>
    <trip id="motorcycle70" depart="56.61" from="-746046968" to="-422163472#0" departLane="best" type="motorcycle_motorcycle"/>
    <trip id="motorcycle71" depart="57.42" from="-1057071794" to="-265763295#0" departLane="best" type="motorcycle_motorcycle" departSpeed="max"/>
    <trip id="motorcycle72" depart="58.23" from="167468600#4" to="-819742094#1" departLane="best" type="motorcycle_motorcycle"/>
    <trip id="motorcycle73" depart="59.03" from="773114810#1" to="1076773582#0" departLane="best" type="motorcycle_motorcycle"/>
    <trip id="motorcycle74" depart="59.84" from="1267713451" to="1057070846#1" departLane="best" type="motorcycle_motorcycle"/>
    <trip id="motorcycle75" depart="60.65" from="-424014408" to="660186217#17" departLane="best" type="motorcycle_motorcycle"/>
    <trip id="motorcycle76" depart="61.46" from="447183182#1" to="-421290131#0" departLane="best" type="motorcycle_motorcycle"/>
    <trip id="motorcycle77" depart="62.27" from="38116079#0" to="-1537097127" departLane="best" type="motorcycle_motorcycle"/>
    <trip id="motorcycle78" depart="63.08" from="1255548003" to="1253576942" departLane="best" type="motorcycle_motorcycle"/>
    <trip id="motorcycle79" depart="63.89" from="-417157131#9" to="38116079#1" departLane="best" type="motorcycle_motorcycle"/>
    <trip id="motorcycle80" depart="64.70" from="-167468617#2" to="1076000734" departLane="best" type="motorcycle_motorcycle"/>
    <trip id="motorcycle81" depart="65.50" from="-819419172#1" to="242476849#1" departLane="best" type="motorcycle_motorcycle"/>
    <trip id="motorcycle82" depart="66.31" from="-424014444#5" to="1210918838" departLane="best" type="motorcycle_motorcycle"/>
    <trip id="motorcycle83" depart="67.12" from="772394684" to="-370902452#5" departLane="best" type="motorcycle_motorcycle" departSpeed="max"/>
    <trip id="motorcycle84" depart="67.93" from="686633287#1" to="-775967402#2" departLane="best" type="motorcycle_motorcycle"/>
    <trip id="motorcycle85" depart="68.74" from="80508234#3" to="1183630060" departLane="best" type="motorcycle_motorcycle"/>
    <trip id="motorcycle86" depart="69.55" from="-167468610#10" to="152784363#0" departLane="best" type="motorcycle_motorcycle"/>
    <trip id="motorcycle87" depart="70.36" from="722443712" to="-38116094#6" departLane="best" type="motorcycle_motorcycle" departSpeed="max"/>
    <trip id="motorcycle88" depart="71.16" from="-38116085#2" to="242476851#0" departLane="best" type="motorcycle_motorcycle"/>
    <trip id="motorcycle89" depart="71.97" from="-1057070283" to="773159638#7" departLane="best" type="motorcycle_motorcycle"/>
    <trip id="motorcycle90" depart="72.78" from="-45323263#0" to="-288500048#4" departLane="best" type="motorcycle_motorcycle"/>
    <trip id="motorcycle91" depart="73.59" from="704169765#4" to="-167468628#4" departLane="best" type="motorcycle_motorcycle"/>
    <trip id="motorcycle92" depart="74.40" from="677801447#2" to="424007886" departLane="best" type="motorcycle_motorcycle"/>
    <trip id="motorcycle93" depart="75.21" from="-424014375" to="-418982755#3" departLane="best" type="motorcycle_motorcycle"/>
    <trip id="motorcycle94" depart="76.02" from="1057069181#1" to="275694829#1" departLane="best" type="motorcycle_motorcycle"/>
    <trip id="motorcycle95" depart="76.83" from="-424014436#2" to="-424014390" departLane="best" type="motorcycle_motorcycle"/>
    <trip id="motorcycle96" depart="77.63" from="1253478035" to="717023392#2" departLane="best" type="motorcycle_motorcycle" departSpeed="max"/>
    <trip id="motorcycle97" depart="78.44" from="38116077#0" to="-1186789295#1" departLane="best" type="motorcycle_motorcycle"/>
    <trip id="motorcycle98" depart="79.25" from="76834907#1" to="1184930811#1" departLane="best" type="motorcycle_motorcycle"/>
    <trip id="motorcycle99" depart="80.06" from="24577409#2" to="-112102234" departLane="best" type="motorcycle_motorcycle"/>
    <trip id="motorcycle100" depart="80.87" from="-1253499279#0" to="80519912#8" departLane="best" type="motorcycle_motorcycle"/>
    <trip id="motorcycle101" depart="81.68" from="424014417#0" to="-167468622#0" departLane="best" type="motorcycle_motorcycle" departSpeed="max"/>
    <trip id="motorcycle102" depart="82.49" from="169421729#2" to="-583910220#7" departLane="best" type="motorcycle_motorcycle"/>
    <trip id="motorcycle103" depart="83.29" from="-370902443#1" to="24577385#7" departLane="best" type="motorcycle_motorcycle"/>
    <trip id="motorcycle104" depart="84.10" from="-23151097#4" to="1238033030#0" departLane="best" type="motorcycle_motorcycle"/>
    <trip id="motorcycle105" depart="84.91" from="-169421708#1" to="-1123372347#1" departLane="best" type="motorcycle_motorcycle"/>
    <trip id="motorcycle106" depart="85.72" from="-704169765#2" to="-418982755#3" departLane="best" type="motorcycle_motorcycle"/>
    <trip id="motorcycle107" depart="86.53" from="1057070292#2" to="1238208993" departLane="best" type="motorcycle_motorcycle"/>
    <trip id="motorcycle108" depart="87.34" from="-1253890952" to="-38116077#0" departLane="best" type="motorcycle_motorcycle" departSpeed="max"/>
    <trip id="motorcycle109" depart="88.15" from="1431886596#1" to="-422146811#4" departLane="best" type="motorcycle_motorcycle"/>
    <trip id="motorcycle110" depart="88.96" from="-424036566" to="-1427897684#1" departLane="best" type="motorcycle_motorcycle"/>
    <trip id="motorcycle111" depart="89.76" from="421287872#2" to="-169002217#10" departLane="best" type="motorcycle_motorcycle"/>
    <trip id="motorcycle112" depart="90.57" from="421289065#2" to="-235153817#7" departLane="best" type="motorcycle_motorcycle"/>
    <trip id="motorcycle113" depart="91.38" from="-132087598#0" to="-1541038918#6" departLane="best" type="motorcycle_motorcycle"/>
    <trip id="motorcycle114" depart="92.19" from="-1211179304#3" to="-1309643015#1" departLane="best" type="motorcycle_motorcycle"/>
    <trip id="motorcycle115" depart="93.00" from="292194566#1" to="585446280#5" departLane="best" type="motorcycle_motorcycle"/>
    <trip id="motorcycle116" depart="93.81" from="-1075984599" to="-205080612#2" departLane="best" type="motorcycle_motorcycle"/>
    <trip id="motorcycle117" depart="94.62" from="686610228#0" to="672159749#1" departLane="best" type="motorcycle_motorcycle"/>
    <trip id="motorcycle118" depart="95.43" from="-28153848#10" to="1152735268#2" departLane="best" type="motorcycle_motorcycle"/>
    <trip id="motorcycle119" depart="96.23" from="-338959812#8" to="-80440840#14" departLane="best" type="motorcycle_motorcycle"/>
    <trip id="motorcycle120" depart="97.04" from="220203320#6" to="-423409334#1" departLane="best" type="motorcycle_motorcycle"/>
    <trip id="motorcycle121" depart="97.85" from="-706609026#2" to="168901313#1" departLane="best" type="motorcycle_motorcycle"/>
    <trip id="motorcycle122" depart="98.66" from="-421280687#3" to="-421289065#4" departLane="best" type="motorcycle_motorcycle"/>
    <trip id="motorcycle123" depart="99.47" from="1132736791" to="-176466560#0" departLane="best" type="motorcycle_motorcycle"/>
    <trip id="motorcycle124" depart="100.28" from="170767283#0" to="220381925#1" departLane="best" type="motorcycle_motorcycle"/>
    <trip id="motorcycle125" depart="101.09" from="1057070820" to="-696793460#1" departLane="best" type="motorcycle_motorcycle"/>
    <trip id="motorcycle126" depart="101.89" from="417157120#8" to="570827854#1" departLane="best" type="motorcycle_motorcycle"/>
    <trip id="motorcycle127" depart="102.70" from="-1118600424#1" to="1255149667#1" departLane="best" type="motorcycle_motorcycle"/>
    <trip id="motorcycle128" depart="103.51" from="-417158715#0" to="-777925982#1" departLane="best" type="motorcycle_motorcycle"/>
    <trip id="motorcycle129" depart="104.32" from="-243179521#0" to="112102221#6" departLane="best" type="motorcycle_motorcycle"/>
    <trip id="motorcycle130" depart="105.13" from="423409804#2" to="1076522332#4" departLane="best" type="motorcycle_motorcycle"/>
    <trip id="motorcycle131" depart="105.94" from="-338959812#8" to="-276169618#2" departLane="best" type="motorcycle_motorcycle"/>
    <trip id="motorcycle132" depart="106.75" from="-1253576942" to="423557017#0" departLane="best" type="motorcycle_motorcycle"/>
    <trip id="motorcycle133" depart="107.56" from="1123830791#3" to="77339655#1" departLane="best" type="motorcycle_motorcycle"/>
    <trip id="motorcycle134" depart="108.36" from="706609026#6" to="-1081097727#0" departLane="best" type="motorcycle_motorcycle"/>
    <trip id="motorcycle135" depart="109.17" from="660123527#3" to="170000086#1" departLane="best" type="motorcycle_motorcycle"/>
    <trip id="motorcycle136" depart="109.98" from="-653235647#0" to="-660123513#5" departLane="best" type="motorcycle_motorcycle"/>
    <trip id="motorcycle137" depart="110.79" from="-707027023#1" to="1076778663" departLane="best" type="motorcycle_motorcycle" departSpeed="max"/>
    <trip id="motorcycle138" depart="111.60" from="-1132433680" to="1071431485#1" departLane="best" type="motorcycle_motorcycle"/>
    <trip id="motorcycle139" depart="112.41" from="-1210909326#0" to="-23151090#14" departLane="best" type="motorcycle_motorcycle"/>
    <trip id="motorcycle140" depart="113.22" from="715743299#0" to="112102213#0" departLane="best" type="motorcycle_motorcycle"/>
    <trip id="motorcycle141" depart="114.03" from="423621973#0" to="-265747903#1" departLane="best" type="motorcycle_motorcycle"/>
    <trip id="motorcycle142" depart="114.83" from="1075325784#1" to="1306855983" departLane="best" type="motorcycle_motorcycle"/>
    <trip id="motorcycle143" depart="115.64" from="-169421699#4" to="169421707#1" departLane="best" type="motorcycle_motorcycle"/>
    <trip id="motorcycle144" depart="116.45" from="-424014436#0" to="-1187796048" departLane="best" type="motorcycle_motorcycle"/>
    <trip id="motorcycle145" depart="117.26" from="1202758360" to="-424014419#0" departLane="best" type="motorcycle_motorcycle"/>
    <trip id="motorcycle146" depart="118.07" from="23151090#37" to="686650222#2" departLane="best" type="motorcycle_motorcycle"/>
    <trip id="motorcycle147" depart="118.88" from="-28153857#1" to="1057070262" departLane="best" type="motorcycle_motorcycle"/>
    <trip id="motorcycle148" depart="119.69" from="1290450967#1" to="37222906#1" departLane="best" type="motorcycle_motorcycle"/>
    <trip id="motorcycle149" depart="120.49" from="-38116086#0" to="-423409329#2" departLane="best" type="motorcycle_motorcycle"/>
    <trip id="motorcycle150" depart="121.30" from="570827854#1" to="660186217#10" departLane="best" type="motorcycle_motorcycle"/>
    <trip id="motorcycle151" depart="122.11" from="-242476850" to="242476854#4" departLane="best" type="motorcycle_motorcycle" departSpeed="max"/>
    <trip id="motorcycle152" depart="122.92" from="370955251#0" to="1187268510#2" departLane="best" type="motorcycle_motorcycle"/>
    <trip id="motorcycle153" depart="123.73" from="614072017#1" to="-164910160#2" departLane="best" type="motorcycle_motorcycle"/>
    <trip id="motorcycle154" depart="124.54" from="1064106557#2" to="275139594#4" departLane="best" type="motorcycle_motorcycle"/>
    <trip id="motorcycle155" depart="125.35" from="1253534998#1" to="-1236531727" departLane="best" type="motorcycle_motorcycle"/>
    <trip id="motorcycle156" depart="126.16" from="-38116068#5" to="-417010246#3" departLane="best" type="motorcycle_motorcycle"/>
    <trip id="motorcycle157" depart="126.96" from="773114809#2" to="696793463" departLane="best" type="motorcycle_motorcycle"/>
    <trip id="motorcycle158" depart="127.77" from="23151102#2" to="1210909326#1" departLane="best" type="motorcycle_motorcycle"/>
    <trip id="motorcycle159" depart="128.58" from="1253189587#0" to="-1183843248#0" departLane="best" type="motorcycle_motorcycle"/>
    <trip id="motorcycle160" depart="129.39" from="1057070298#1" to="168275206#0" departLane="best" type="motorcycle_motorcycle"/>
    <trip id="motorcycle161" depart="130.20" from="1123830771#1" to="276169620#0" departLane="best" type="motorcycle_motorcycle"/>
    <trip id="motorcycle162" depart="131.01" from="-112102211#0" to="-112102241#8" departLane="best" type="motorcycle_motorcycle"/>
    <trip id="motorcycle163" depart="131.82" from="-686660357#1" to="-1252790262" departLane="best" type="motorcycle_motorcycle"/>
    <trip id="motorcycle164" depart="132.62" from="423619342#7" to="164910167#2" departLane="best" type="motorcycle_motorcycle"/>
    <trip id="motorcycle165" depart="133.43" from="265763304#1" to="265763298#4" departLane="best" type="motorcycle_motorcycle"/>
    <trip id="motorcycle166" depart="134.24" from="421280678#0" to="-421289061#1" departLane="best" type="motorcycle_motorcycle" departSpeed="max"/>
    <trip id="motorcycle167" depart="135.05" from="637361425#0" to="777925979#2" departLane="best" type="motorcycle_motorcycle"/>
    <trip id="motorcycle168" depart="135.86" from="695552889" to="417157125#5" departLane="best" type="motorcycle_motorcycle" departSpeed="max"/>
    <trip id="motorcycle169" depart="136.67" from="205080623#2" to="686616623#0" departLane="best" type="motorcycle_motorcycle"/>
    <trip id="motorcycle170" depart="137.48" from="-169196737#0" to="370902452#4" departLane="best" type="motorcycle_motorcycle"/>
    <trip id="motorcycle171" depart="138.29" from="-1539445373" to="1183851858" departLane="best" type="motorcycle_motorcycle"/>
    <trip id="motorcycle172" depart="139.09" from="-424021874#2" to="424014381#1" departLane="best" type="motorcycle_motorcycle"/>
    <trip id="motorcycle173" depart="139.90" from="167468629#4" to="1495477899#4" departLane="best" type="motorcycle_motorcycle"/>
    <trip id="motorcycle174" depart="140.71" from="176466552#2" to="-686605940#0" departLane="best" type="motorcycle_motorcycle"/>
    <trip id="motorcycle175" depart="141.52" from="-23151088#2" to="23151102#43" departLane="best" type="motorcycle_motorcycle"/>
    <trip id="motorcycle176" depart="142.33" from="868635731" to="758753878#12" departLane="best" type="motorcycle_motorcycle"/>
    <trip id="motorcycle177" depart="143.14" from="-717457953#1" to="169413585#0" departLane="best" type="motorcycle_motorcycle"/>
    <trip id="motorcycle178" depart="143.95" from="1458669029" to="-169413618#8" departLane="best" type="motorcycle_motorcycle"/>
    <trip id="motorcycle179" depart="144.76" from="-220385651#12" to="1075651200#1" departLane="best" type="motorcycle_motorcycle"/>
    <trip id="motorcycle180" depart="145.56" from="-167468600#2" to="167468613#2" departLane="best" type="motorcycle_motorcycle"/>
    <trip id="motorcycle181" depart="146.37" from="-1183834252#1" to="-1183832923#0" departLane="best" type="motorcycle_motorcycle" departSpeed="max"/>
    <trip id="motorcycle182" depart="147.18" from="-660123514" to="663067892#2" departLane="best" type="motorcycle_motorcycle"/>
    <trip id="motorcycle183" depart="147.99" from="-167468632#0" to="1252814307#0" departLane="best" type="motorcycle_motorcycle"/>
    <trip id="motorcycle184" depart="148.80" from="-265903497#2" to="-686630591#2" departLane="best" type="motorcycle_motorcycle"/>
    <trip id="motorcycle185" depart="149.61" from="-370955221#1" to="1290450966#3" departLane="best" type="motorcycle_motorcycle"/>
    <trip id="motorcycle186" depart="150.42" from="417010628#7" to="23151090#8" departLane="best" type="motorcycle_motorcycle"/>
    <trip id="motorcycle187" depart="151.22" from="-1076026821#1" to="-167454899#7" departLane="best" type="motorcycle_motorcycle"/>
    <trip id="motorcycle188" depart="152.03" from="-1456179051" to="585446285#1" departLane="best" type="motorcycle_motorcycle" departSpeed="max"/>
    <trip id="motorcycle189" depart="152.84" from="1534772657#6" to="265763297#9" departLane="best" type="motorcycle_motorcycle"/>
    <trip id="motorcycle190" depart="153.65" from="-1076243106#1" to="186810179#4" departLane="best" type="motorcycle_motorcycle"/>
    <trip id="motorcycle191" depart="154.46" from="-766036528#2" to="1057070281#1" departLane="best" type="motorcycle_motorcycle"/>
    <trip id="motorcycle192" depart="155.27" from="686610228#1" to="371321384#2" departLane="best" type="motorcycle_motorcycle"/>
    <trip id="motorcycle193" depart="156.08" from="-167454899#8" to="-424021885#0" departLane="best" type="motorcycle_motorcycle"/>
    <trip id="motorcycle194" depart="156.89" from="169421737" to="-169421699#0" departLane="best" type="motorcycle_motorcycle"/>
    <trip id="motorcycle195" depart="157.69" from="176466552#0" to="1255199346#0" departLane="best" type="motorcycle_motorcycle"/>
    <trip id="motorcycle196" depart="158.50" from="-424014401#1" to="704169765#0" departLane="best" type="motorcycle_motorcycle"/>
    <trip id="motorcycle197" depart="159.31" from="-265847405#2" to="871032383#1" departLane="best" type="motorcycle_motorcycle"/>
    <trip id="motorcycle198" depart="160.12" from="1183836790#1" to="563791819#6" departLane="best" type="motorcycle_motorcycle"/>
    <trip id="motorcycle199" depart="160.93" from="686630591#0" to="-1250663618" departLane="best" type="motorcycle_motorcycle" departSpeed="max"/>
    <trip id="motorcycle200" depart="161.74" from="1071178129#2" to="-242476851#1" departLane="best" type="motorcycle_motorcycle"/>
    <trip id="motorcycle201" depart="162.55" from="-671118676" to="-169413595#4" departLane="best" type="motorcycle_motorcycle"/>
    <trip id="motorcycle202" depart="163.36" from="-205080616#0" to="-621256676#0" departLane="best" type="motorcycle_motorcycle"/>
    <trip id="motorcycle203" depart="164.16" from="168898783#0" to="-417156340#2" departLane="best" type="motorcycle_motorcycle" departSpeed="max"/>
    <trip id="motorcycle204" depart="164.97" from="775967403#0" to="265032208#0" departLane="best" type="motorcycle_motorcycle"/>
    <trip id="motorcycle205" depart="165.78" from="705373262#0" to="686572627#1" departLane="best" type="motorcycle_motorcycle"/>
    <trip id="motorcycle206" depart="166.59" from="313241738#3" to="229927778#10" departLane="best" type="motorcycle_motorcycle"/>
    <trip id="motorcycle207" depart="167.40" from="23151102#7" to="-23151095#0" departLane="best" type="motorcycle_motorcycle"/>
    <trip id="motorcycle208" depart="168.21" from="-686621020#2" to="-169413597#0" departLane="best" type="motorcycle_motorcycle"/>
    <trip id="motorcycle209" depart="169.02" from="164910176#5" to="164910157#1" departLane="best" type="motorcycle_motorcycle"/>
    <trip id="motorcycle210" depart="169.82" from="-704169765#3" to="167468598#7" departLane="best" type="motorcycle_motorcycle"/>
    <trip id="motorcycle211" depart="170.63" from="621256675" to="-38116089#12" departLane="best" type="motorcycle_motorcycle"/>
    <trip id="motorcycle212" depart="171.44" from="672161238#2" to="371321382#2" departLane="best" type="motorcycle_motorcycle"/>
    <trip id="motorcycle213" depart="172.25" from="417156347#5" to="-417010628#8" departLane="best" type="motorcycle_motorcycle"/>
    <trip id="motorcycle214" depart="173.06" from="220381927" to="-777925982#1" departLane="best" type="motorcycle_motorcycle"/>
    <trip id="motorcycle215" depart="173.87" from="1152735268#1" to="-338959812#1" departLane="best" type="motorcycle_motorcycle"/>
    <trip id="motorcycle216" depart="174.68" from="1534492435#1" to="169413584#1" departLane="best" type="motorcycle_motorcycle"/>
    <trip id="motorcycle217" depart="175.49" from="-1064106555#0" to="-421427853#4" departLane="best" type="motorcycle_motorcycle"/>
    <trip id="motorcycle218" depart="176.29" from="220203320#3" to="773765063#5" departLane="best" type="motorcycle_motorcycle"/>