<?xml version="1.0" encoding="UTF-8"?>

<!-- generated on 2026-07-12 00:35:04.695396 by Eclipse SUMO osmWebWizard.py v1_27_1+0000-7717f2379d9
<configuration>
    <net-file value="C:\Users\sudha\2026-07-12-00-34-41\osm.net.xml.gz"/>
    <output-trip-file value="C:\Users\sudha\2026-07-12-00-34-41\osm.passenger.trips.xml"/>
    <route-file value="C:\Users\sudha\2026-07-12-00-34-41\osm.passenger.rou.xml"/>
    <prefix value="veh"/>
    <trip-attributes value="departLane=&quot;best&quot;"/>
    <fringe-start-attributes value="departSpeed=&quot;max&quot;"/>
    <vehicle-class value="passenger"/>
    <lanes value="True"/>
    <fringe-factor value="5"/>
    <allow-fringe.min-length value="1000.0"/>
    <edge-permission value="passenger"/>
    <via-edge-types value="highway.motorway,highway.motorway_link,highway.trunk_link,highway.primary_link,highway.secondary_link,highway.tertiary_link"/>
    <min-distance value="300.0"/>
    <min-distance.fringe value="10.0"/>
    <remove-loops value="True"/>
    <end value="60.0"/>
    <insertion-density value="12.0"/>
</configuration>
-->

<routes xmlns:xsi="http://www.w3.org/2001/XMLSchema-instance" xsi:noNamespaceSchemaLocation="http://sumo.dlr.de/xsd/routes_file.xsd">
    <vType id="veh_passenger" vClass="passenger"/>
    <trip id="veh0" depart="0.00" from="24584502" to="-1072978656#1" departLane="best" type="veh_passenger"/>
    <trip id="veh1" depart="1.82" from="-998790358#17" to="-782774057#0" departLane="best" type="veh_passenger"/>
    <trip id="veh2" depart="3.64" from="563679821#1" to="44277694#4" departLane="best" type="veh_passenger"/>
    <trip id="veh3" depart="5.46" from="722082946#1" to="-24577118#11" departLane="best" type="veh_passenger"/>
    <trip id="veh4" depart="7.28" from="1537111946#1" to="-1074157512#0" departLane="best" type="veh_passenger"/>
    <trip id="veh5" depart="9.10" from="-675478334#0" to="24583321#0" departLane="best" type="veh_passenger"/>
    <trip id="veh6" depart="10.92" from="-1115964325" to="-577982260#1" departLane="best" type="veh_passenger" departSpeed="max"/>
    <trip id="veh7" depart="12.74" from="278577243#0" to="24583495#3" departLane="best" type="veh_passenger" departSpeed="max"/>
    <trip id="veh8" depart="14.56" from="675478334#3" to="-1053851211#5" departLane="best" type="veh_passenger"/>
    <trip id="veh9" depart="16.38" from="995793692#7" to="1122220363" departLane="best" type="veh_passenger"/>
    <trip id="veh10" depart="18.20" from="-235103610#0" to="-24583487#10" departLane="best" type="veh_passenger"/>
    <trip id="veh11" depart="20.02" from="711421326#4" to="24584390#1" departLane="best" type="veh_passenger"/>
    <trip id="veh12" depart="21.84" from="665150699#0" to="563679836#11" departLane="best" type="veh_passenger"/>
    <trip id="veh13" depart="23.66" from="24583487#0" to="998790356#1" departLane="best" type="veh_passenger"/>
    <trip id="veh14" depart="25.48" from="1271156421#4" to="24583590#2" departLane="best" type="veh_passenger"/>
    <trip id="veh15" depart="27.30" from="712992071#5" to="24584375#7" departLane="best" type="veh_passenger"/>
    <trip id="veh16" depart="29.12" from="447141155#2" to="-1122230048" departLane="best" type="veh_passenger"/>
    <trip id="veh17" depart="30.94" from="-1438583474#2" to="-80926768#0" departLane="best" type="veh_passenger"/>
    <trip id="veh18" depart="32.76" from="-24577118#1" to="1053851211#12" departLane="best" type="veh_passenger"/>
    <trip id="veh19" depart="34.58" from="24584424#0" to="116046167#6" departLane="best" type="veh_passenger"/>
    <trip id="veh20" depart="36.40" from="1271156412#0" to="-686673952#1" departLane="best" type="veh_passenger"/>
    <trip id="veh21" depart="38.22" from="-998790356#7" to="80950089" departLane="best" type="veh_passenger"/>
    <trip id="veh22" depart="40.04" from="24584512#1" to="24584393" departLane="best" type="veh_passenger"/>
    <trip id="veh23" depart="41.86" from="-24584420#5" to="563679836#10" departLane="best" type="veh_passenger"/>
    <trip id="veh24" depart="43.68" from="998790358#14" to="24584512#2" departLane="best" type="veh_passenger"/>
    <trip id="veh25" depart="45.50" from="24583495#2" to="447141151#2" departLane="best" type="veh_passenger"/>
    <trip id="veh26" depart="47.32" from="709276138#1" to="596373338#11" departLane="best" type="veh_passenger"/>
    <trip id="veh27" depart="49.14" from="1072954052#0" to="-998790358#16" departLane="best" type="veh_passenger" departSpeed="max"/>
    <trip id="veh28" depart="50.96" from="-577982260#0" to="995792406#7" departLane="best" type="veh_passenger"/>
    <trip id="veh29" depart="52.78" from="717907807#2" to="1075052926#1" departLane="best" type="veh_passenger"/>
    <trip id="veh30" depart="54.60" from="278577245#4" to="1307222666#1" departLane="best" type="veh_passenger"/>
    <trip id="veh31" depart="56.42" from="763520419#0" to="24577096#13" departLane="best" type="veh_passenger"/>
    <trip id="veh32" depart="58.24" from="-998790356#5" to="-995792406#3" departLane="best" type="veh_passenger"/>
</routes>
