<?xml version="1.0" encoding="UTF-8"?>

<nodes>
    <node id="N" x="0" y="100" type="priority"/>
    <node id="S" x="0" y="-100" type="priority"/>
    <node id="E" x="100" y="0" type="priority"/>
    <node id="W" x="-100" y="0" type="priority"/>

    <node id="C" x="0" y="0" type="traffic_light"/>
</nodes>