<?xml version="1.0" encoding="UTF-8"?>

<!-- generated on 2026-07-21 18:19:05.510861 by Eclipse SUMO osmWebWizard.py v1_27_1+0000-7717f2379d9
<configuration>
    <net-file value="C:\Users\sudha\Sumo\2026-07-21-18-16-49\osm.net.xml.gz"/>
    <output-trip-file value="C:\Users\sudha\Sumo\2026-07-21-18-16-49\osm.bus.trips.xml"/>
    <route-file value="C:\Users\sudha\Sumo\2026-07-21-18-16-49\osm.bus.rou.xml"/>
    <prefix value="bus"/>
    <trip-attributes value="departLane=&quot;best&quot;"/>
    <fringe-start-attributes value="departSpeed=&quot;max&quot;"/>
    <vehicle-class value="bus"/>
    <fringe-factor value="5"/>
    <edge-permission value="bus"/>
    <via-edge-types value="highway.motorway,highway.motorway_link,highway.trunk_link,highway.primary_link,highway.secondary_link,highway.tertiary_link"/>
    <min-distance value="600.0"/>
    <min-distance.fringe value="10.0"/>
    <remove-loops value="True"/>
    <insertion-density value="4.0"/>
</configuration>
-->

<routes xmlns:xsi="http://www.w3.org/2001/XMLSchema-instance" xsi:noNamespaceSchemaLocation="http://sumo.dlr.de/xsd/routes_file.xsd">
    <vType id="bus_bus" vClass="bus"/>
    <trip id="bus0" depart="0.00" from="1534772654" to="-1070833839#1" departLane="best" type="bus_bus"/>
    <trip id="bus1" depart="0.84" from="265763297#3" to="23151090#5" departLane="best" type="bus_bus"/>
    <trip id="bus2" depart="1.68" from="611866621#1" to="-1187766136" departLane="best" type="bus_bus"/>
    <trip id="bus3" depart="2.51" from="-696822224#2" to="-1071432116#0" departLane="best" type="bus_bus"/>
    <trip id="bus4" depart="3.35" from="-205080617#8" to="1187268475#1" departLane="best" type="bus_bus"/>
    <trip id="bus5" depart="4.19" from="-1070833839#0" to="-220416145#0" departLane="best" type="bus_bus"/>
    <trip id="bus6" depart="5.03" from="164910162#3" to="1253501577" departLane="best" type="bus_bus"/>
    <trip id="bus7" depart="5.86" from="-220380726#4" to="1456183750" departLane="best" type="bus_bus"/>
    <trip id="bus8" depart="6.70" from="421280668" to="-1057069178" departLane="best" type="bus_bus"/>
    <trip id="bus9" depart="7.54" from="417157125#8" to="265763298#0" departLane="best" type="bus_bus"/>
    <trip id="bus10" depart="8.38" from="-423593938" to="-167468601#4" departLane="best" type="bus_bus"/>
    <trip id="bus11" depart="9.21" from="722443717#1" to="-614072013#3" departLane="best" type="bus_bus"/>
    <trip id="bus12" depart="10.05" from="-1187735392#1" to="-1236532014#0" departLane="best" type="bus_bus" departSpeed="max"/>
    <trip id="bus13" depart="10.89" from="423621944" to="1537097129#0" departLane="best" type="bus_bus"/>
    <trip id="bus14" depart="11.73" from="417158708#2" to="340394250#2" departLane="best" type="bus_bus"/>
    <trip id="bus15" depart="12.56" from="-45323261#5" to="1253890952" departLane="best" type="bus_bus"/>
    <trip id="bus16" depart="13.40" from="421427847#0" to="167468598#4" departLane="best" type="bus_bus"/>
    <trip id="bus17" depart="14.24" from="424021887#0" to="132087594#1" departLane="best" type="bus_bus"/>
    <trip id="bus18" depart="15.08" from="205080622#0" to="-1075071931" departLane="best" type="bus_bus"/>
    <trip id="bus19" depart="15.91" from="-23151090#18" to="-421427843#1" departLane="best" type="bus_bus"/>
    <trip id="bus20" depart="16.75" from="-1132406251" to="-287658623#0" departLane="best" type="bus_bus"/>
    <trip id="bus21" depart="17.59" from="-1203086271" to="-421287871#7" departLane="best" type="bus_bus"/>
    <trip id="bus22" depart="18.43" from="-424036571" to="-235153817#3" departLane="best" type="bus_bus" departSpeed="max"/>
    <trip id="bus23" depart="19.27" from="-370546886#3" to="706609029#1" departLane="best" type="bus_bus" departSpeed="max"/>
    <trip id="bus24" depart="20.10" from="164702340#0" to="163193933#16" departLane="best" type="bus_bus" departSpeed="max"/>
    <trip id="bus25" depart="20.94" from="-163193932#2" to="338959812#8" departLane="best" type="bus_bus"/>
    <trip id="bus26" depart="21.78" from="-152784363#2" to="-717547695" departLane="best" type="bus_bus"/>
    <trip id="bus27" depart="22.62" from="80950066#2" to="169222364#5" departLane="best" type="bus_bus"/>
    <trip id="bus28" depart="23.45" from="1183845650#3" to="235153817#2" departLane="best" type="bus_bus"/>
    <trip id="bus29" depart="24.29" from="423593946#2" to="421285586" departLane="best" type="bus_bus"/>
    <trip id="bus30" depart="25.13" from="-23151090#35" to="-1071447277" departLane="best" type="bus_bus"/>
    <trip id="bus31" depart="25.97" from="-421427847#2" to="-418982753#1" departLane="best" type="bus_bus"/>
    <trip id="bus32" depart="26.80" from="-170000081#1" to="716015301#2" departLane="best" type="bus_bus"/>
    <trip id="bus33" depart="27.64" from="167468598#2" to="-777926807#1" departLane="best" type="bus_bus"/>
    <trip id="bus34" depart="28.48" from="683766456" to="1076235983#0" departLane="best" type="bus_bus"/>
    <trip id="bus35" depart="29.32" from="-338959812#5" to="-370955224#1" departLane="best" type="bus_bus"/>
    <trip id="bus36" depart="30.15" from="1187071543" to="-417156340#21" departLane="best" type="bus_bus" departSpeed="max"/>
    <trip id="bus37" depart="30.99" from="1236565651" to="672161238#4" departLane="best" type="bus_bus" departSpeed="max"/>
    <trip id="bus38" depart="31.83" from="-677418645" to="-265847405#0" departLane="best" type="bus_bus"/>
    <trip id="bus39" depart="32.67" from="892674900#1" to="1187268512#0" departLane="best" type="bus_bus"/>
    <trip id="bus40" depart="33.50" from="-1187530791#1" to="-1075325784#1" departLane="best" type="bus_bus"/>
    <trip id="bus41" depart="34.34" from="38116070" to="1057070838#1" departLane="best" type="bus_bus"/>
    <trip id="bus42" depart="35.18" from="-1116351088#0" to="-722443717#1" departLane="best" type="bus_bus"/>
    <trip id="bus43" depart="36.02" from="868632360" to="1236565126" departLane="best" type="bus_bus"/>
    <trip id="bus44" depart="36.85" from="-1057070279" to="292194577#3" departLane="best" type="bus_bus" departSpeed="max"/>
    <trip id="bus45" depart="37.69" from="169413600#0" to="1252790261#1" departLane="best" type="bus_bus" departSpeed="max"/>
    <trip id="bus46" depart="38.53" from="-370546886#1" to="169411882#6" departLane="best" type="bus_bus"/>
    <trip id="bus47" depart="39.37" from="-1251098664" to="1071155822" departLane="best" type="bus_bus" departSpeed="max"/>
    <trip id="bus48" depart="40.21" from="555197211#1" to="-417156347#0" departLane="best" type="bus_bus"/>
    <trip id="bus49" depart="41.04" from="1071431081" to="-169413612#3" departLane="best" type="bus_bus" departSpeed="max"/>
    <trip id="bus50" depart="41.88" from="678397111#0" to="565938868#0-AddedOnRampEdge" departLane="best" type="bus_bus"/>
    <trip id="bus51" depart="42.72" from="-421285577#0" to="169222357#1" departLane="best" type="bus_bus"/>
    <trip id="bus52" depart="43.56" from="1255482946" to="-167454893#2" departLane="best" type="bus_bus" departSpeed="max"/>
    <trip id="bus53" depart="44.39" from="292194577#0" to="1252814308" departLane="best" type="bus_bus"/>
    <trip id="bus54" depart="45.23" from="370955249#0" to="1236568327" departLane="best" type="bus_bus"/>
    <trip id="bus55" depart="46.07" from="-1038680110#1" to="-424036586#0" departLane="best" type="bus_bus" departSpeed="max"/>
    <trip id="bus56" depart="46.91" from="-1057071812" to="696875733#0" departLane="best" type="bus_bus" departSpeed="max"/>
    <trip id="bus57" depart="47.74" from="562479736#4" to="424014369" departLane="best" type="bus_bus"/>
    <trip id="bus58" depart="48.58" from="-421289055#3" to="-1076787304#1" departLane="best" type="bus_bus"/>
    <trip id="bus59" depart="49.42" from="561929987" to="717457944" departLane="best" type="bus_bus"/>
    <trip id="bus60" depart="50.26" from="-1183845652" to="1123530011" departLane="best" type="bus_bus" departSpeed="max"/>
    <trip id="bus61" depart="51.09" from="-112102238#2" to="417156340#19" departLane="best" type="bus_bus"/>
    <trip id="bus62" depart="51.93" from="312031903#1" to="-132087594#14" departLane="best" type="bus_bus"/>
    <trip id="bus63" depart="52.77" from="1057069142#1" to="1253865810" departLane="best" type="bus_bus"/>
    <trip id="bus64" depart="53.61" from="-338959812#8" to="570803639#2" departLane="best" type="bus_bus"/>
    <trip id="bus65" depart="54.44" from="-697289106#0" to="-243329206#7" departLane="best" type="bus_bus"/>
    <trip id="bus66" depart="55.28" from="1118600424#2" to="340394251#0" departLane="best" type="bus_bus"/>
    <trip id="bus67" depart="56.12" from="-169222361#1" to="-424014366#0" departLane="best" type="bus_bus"/>
    <trip id="bus68" depart="56.96" from="-718260923" to="1187826296#1" departLane="best" type="bus_bus" departSpeed="max"/>
    <trip id="bus69" depart="57.80" from="-423556998#1" to="1456178632" departLane="best" type="bus_bus" departSpeed="max"/>
    <trip id="bus70" depart="58.63" from="-23151096#1" to="-265903497#17" departLane="best" type="bus_bus"/>
    <trip id="bus71" depart="59.47" from="-23151090#33" to="686170017#6" departLane="best" type="bus_bus"/>
    <trip id="bus72" depart="60.31" from="424021845#2" to="-1123510297" departLane="best" type="bus_bus"/>
    <trip id="bus73" depart="61.15" from="-24577367#6" to="220385651#10" departLane="best" type="bus_bus"/>
    <trip id="bus74" depart="61.98" from="696793460#0" to="1306344568" departLane="best" type="bus_bus"/>
    <trip id="bus75" depart="62.82" from="1057067120#1" to="421289065#7" departLane="best" type="bus_bus"/>
    <trip id="bus76" depart="63.66" from="417158712#1" to="-186810179#6" departLane="best" type="bus_bus"/>
    <trip id="bus77" depart="64.50" from="-1187803760#2" to="1059143626#1" departLane="best" type="bus_bus"/>
    <trip id="bus78" depart="65.33" from="-697289106#7" to="1076778664" departLane="best" type="bus_bus"/>
    <trip id="bus79" depart="66.17" from="24577381#7" to="23151088#1" departLane="best" type="bus_bus"/>
    <trip id="bus80" depart="67.01" from="80439704#2" to="-1236568627" departLane="best" type="bus_bus"/>
    <trip id="bus81" depart="67.85" from="-686569921#1" to="-660123513#1" departLane="best" type="bus_bus"/>
    <trip id="bus82" depart="68.68" from="424021887#0" to="-370955246#0" departLane="best" type="bus_bus"/>
    <trip id="bus83" depart="69.52" from="-168156167#3" to="1074749102#1" departLane="best" type="bus_bus" departSpeed="max"/>
    <trip id="bus84" depart="70.36" from="-696822224#2" to="-421287872#3" departLane="best" type="bus_bus"/>
    <trip id="bus85" depart="71.20" from="-275139597#1" to="696664263#1" departLane="best" type="bus_bus"/>
    <trip id="bus86" depart="72.03" from="-739750544#1" to="527703954#1" departLane="best" type="bus_bus"/>
    <trip id="bus87" depart="72.87" from="993368939#1" to="424014411" departLane="best" type="bus_bus"/>
    <trip id="bus88" depart="73.71" from="423826893#3" to="-168898359#3" departLane="best" type="bus_bus"/>
    <trip id="bus89" depart="74.55" from="1057070829" to="-24577414#3" departLane="best" type="bus_bus" departSpeed="max"/>
    <trip id="bus90" depart="75.38" from="-681852565" to="-1076795824#1" departLane="best" type="bus_bus"/>
    <trip id="bus91" depart="76.22" from="-45323262#2" to="80519914#8" departLane="best" type="bus_bus" departSpeed="max"/>
    <trip id="bus92" depart="77.06" from="-338959814#0" to="421289063#1" departLane="best" type="bus_bus"/>
    <trip id="bus93" depart="77.90" from="-777918878" to="1057070843" departLane="best" type="bus_bus"/>
    <trip id="bus94" depart="78.74" from="1183833458" to="292194566#0" departLane="best" type="bus_bus"/>
    <trip id="bus95" depart="79.57" from="1071445790" to="44315453#15" departLane="best" type="bus_bus" departSpeed="max"/>
    <trip id="bus96" depart="80.41" from="-1459217957" to="760525678#2" departLane="best" type="bus_bus" departSpeed="max"/>
    <trip id="bus97" depart="81.25" from="-1132433679#1" to="-170000079#0" departLane="best" type="bus_bus" departSpeed="max"/>
    <trip id="bus98" depart="82.09" from="-242476850" to="-1255520598" departLane="best" type="bus_bus" departSpeed="max"/>
    <trip id="bus99" depart="82.92" from="601484557#0" to="-370955223#1" departLane="best" type="bus_bus"/>
    <trip id="bus100" depart="83.76" from="1253189587#4" to="167468601#1" departLane="best" type="bus_bus"/>
    <trip id="bus101" depart="84.60" from="-696793457" to="1427897684#2" departLane="best" type="bus_bus"/>
    <trip id="bus102" depart="85.44" from="-169413612#3" to="287653320#2" departLane="best" type="bus_bus"/>
    <trip id="bus103" depart="86.27" from="-24577412#0" to="-777926811" departLane="best" type="bus_bus"/>
    <trip id="bus104" depart="87.11" from="169002217#0" to="-423409334#0" departLane="best" type="bus_bus"/>
    <trip id="bus105" depart="87.95" from="-421427851#1" to="38116073#8" departLane="best" type="bus_bus" departSpeed="max"/>
    <trip id="bus106" depart="88.79" from="-1122583314" to="1076026822" departLane="best" type="bus_bus" departSpeed="max"/>
    <trip id="bus107" depart="89.62" from="-1123151125" to="-24577409#1" departLane="best" type="bus_bus"/>
    <trip id="bus108" depart="90.46" from="-338959814#0" to="705373262#1" departLane="best" type="bus_bus"/>
    <trip id="bus109" depart="91.30" from="565938871#2" to="590522606#0" departLane="best" type="bus_bus"/>
    <trip id="bus110" depart="92.14" from="-424036566" to="-167468610#12" departLane="best" type="bus_bus"/>
    <trip id="bus111" depart="92.97" from="422146758#3" to="26664728#6" departLane="best" type="bus_bus"/>
    <trip id="bus112" depart="93.81" from="1255549563#2" to="80950060#1" departLane="best" type="bus_bus"/>
    <trip id="bus113" depart="94.65" from="167454893#2" to="-1057069634" departLane="best" type="bus_bus"/>
    <trip id="bus114" depart="95.49" from="421287868#0" to="-423409330#0" departLane="best" type="bus_bus" departSpeed="max"/>
    <trip id="bus115" depart="96.33" from="167468628#3" to="708488753#0" departLane="best" type="bus_bus"/>
    <trip id="bus116" depart="97.16" from="-1255456501" to="-1255169228#1" departLane="best" type="bus_bus" departSpeed="max"/>
    <trip id="bus117" depart="98.00" from="-1236565126" to="1254857434#7" departLane="best" type="bus_bus" departSpeed="max"/>
    <trip id="bus118" depart="98.84" from="-370955235" to="1539445372#1" departLane="best" type="bus_bus"/>
    <trip id="bus119" depart="99.68" from="23151102#21" to="-23151090#29" departLane="best" type="bus_bus"/>
    <trip id="bus120" depart="100.51" from="1495477899#5" to="-417156347#17" departLane="best" type="bus_bus"/>
    <trip id="bus121" depart="101.35" from="1057070857#2" to="686170017#4" departLane="best" type="bus_bus"/>
    <trip id="bus122" depart="102.19" from="423619342#2" to="-1205701707#2" departLane="best" type="bus_bus"/>
    <trip id="bus123" depart="103.03" from="-697289106#7" to="-421287867#2" departLane="best" type="bus_bus"/>
    <trip id="bus124" depart="103.86" from="-1057067137" to="421280695#2" departLane="best" type="bus_bus" departSpeed="max"/>
    <trip id="bus125" depart="104.70" from="152784350" to="-417156340#10" departLane="best" type="bus_bus" departSpeed="max"/>
    <trip id="bus126" depart="105.54" from="-706609027#4" to="-1057069662" departLane="best" type="bus_bus"/>
    <trip id="bus127" depart="106.38" from="-1123830774#1" to="631795142" departLane="best" type="bus_bus" departSpeed="max"/>
    <trip id="bus128" depart="107.21" from="422146782#1" to="1394171515" departLane="best" type="bus_bus"/>
    <trip id="bus129" depart="108.05" from="-132087596#1" to="-1311935389" departLane="best" type="bus_bus"/>
    <trip id="bus130" depart="108.89" from="-421289061#3" to="676512406#4" departLane="best" type="bus_bus"/>
    <trip id="bus131" depart="109.73" from="38116089#5" to="527703935#1" departLane="best" type="bus_bus"/>
    <trip id="bus132" depart="110.56" from="660123512#0" to="-242476851#2" departLane="best" type="bus_bus"/>
    <trip id="bus133" depart="111.40" from="-275139595#1" to="-1252734948#1" departLane="best" type="bus_bus"/>
    <trip id="bus134" depart="112.24" from="371321386#1" to="652047011#0" departLane="best" type="bus_bus"/>
    <trip id="bus135" depart="113.08" from="-686630758#2" to="167468606" departLane="best" type="bus_bus"/>
    <trip id="bus136" depart="113.91" from="-1456178358" to="697289106#0" departLane="best" type="bus_bus" departSpeed="max"/>
    <trip id="bus137" depart="114.75" from="424036588#2" to="775970173#2" departLane="best" type="bus_bus"/>
    <trip id="bus138" depart="115.59" from="421280687#3" to="611866623#1" departLane="best" type="bus_bus"/>
    <trip id="bus139" depart="116.43" from="-1060418470" to="370955229" departLane="best" type="bus_bus"/>
    <trip id="bus140" depart="117.27" from="421280687#2" to="-417157131#9" departLane="best" type="bus_bus"/>
    <trip id="bus141" depart="118.10" from="37222923#1" to="-1253234258" departLane="best" type="bus_bus"/>
    <trip id="bus142" depart="118.94" from="458301237" to="45323263#1" departLane="best" type="bus_bus"/>
    <trip id="bus143" depart="119.78" from="-220385652#2" to="423593953#0" departLane="best" type="bus_bus"/>
    <trip id="bus144" depart="120.62" from="-80950012#1" to="-423619333#5" departLane="best" type="bus_bus"/>
    <trip id="bus145" depart="121.45" from="38116086#1" to="-275449089" departLane="best" type="bus_bus"/>
    <trip id="bus146" depart="122.29" from="-1057547233#4" to="-205080615#0" departLane="best" type="bus_bus"/>
    <trip id="bus147" depart="123.13" from="766036529#1" to="-421287877#2" departLane="best" type="bus_bus"/>
    <trip id="bus148" depart="123.97" from="1536739166#0" to="-80950060#0" departLane="best" type="bus_bus"/>
    <trip id="bus149" depart="124.80" from="777918879#8" to="1252747366" departLane="best" type="bus_bus"/>
    <trip id="bus150" depart="125.64" from="697687506" to="-1255168546" departLane="best" type="bus_bus"/>
    <trip id="bus151" depart="126.48" from="772394684" to="-169413612#1" departLane="best" type="bus_bus" departSpeed="max"/>
    <trip id="bus152" depart="127.32" from="758753878#7" to="-417157120#6" departLane="best" type="bus_bus"/>
    <trip id="bus153" depart="128.15" from="-1236568328" to="1071155820#2" departLane="best" type="bus_bus" departSpeed="max"/>
    <trip id="bus154" depart="128.99" from="24577381#0" to="-424014388#2" departLane="best" type="bus_bus"/>
    <trip id="bus155" depart="129.83" from="1255199346#6" to="1187530791#2" departLane="best" type="bus_bus"/>
    <trip id="bus156" depart="130.67" from="-533569861#9" to="1313474874" departLane="best" type="bus_bus"/>
    <trip id="bus157" depart="131.50" from="-28153848#6" to="275139602#5" departLane="best" type="bus_bus"/>
    <trip id="bus158" depart="132.34" from="-1052921550#1" to="696793453" departLane="best" type="bus_bus" departSpeed="max"/>
    <trip id="bus159" depart="133.18" from="167468630#4" to="-527703944" departLane="best" type="bus_bus"/>
    <trip id="bus160" depart="134.02" from="-421427828#0" to="424036585#3" departLane="best" type="bus_bus"/>
    <trip id="bus161" depart="134.86" from="-421289067#3" to="1050685733#2" departLane="best" type="bus_bus"/>
    <trip id="bus162" depart="135.69" from="-1254857434#1" to="1057070810" departLane="best" type="bus_bus"/>
    <trip id="bus163" depart="136.53" from="70258965#3" to="23151096#0" departLane="best" type="bus_bus"/>
    <trip id="bus164" depart="137.37" from="661677271#0" to="164910179#3" departLane="best" type="bus_bus"/>
    <trip id="bus165" depart="138.21" from="-421285594" to="1253564037" departLane="best" type="bus_bus" departSpeed="max"/>
    <trip id="bus166" depart="139.04" from="167454899#15" to="1076765440" departLane="best" type="bus_bus"/>
    <trip id="bus167" depart="139.88" from="-738895057#1" to="-24577414#1" departLane="best" type="bus_bus"/>
    <trip id="bus168" depart="140.72" from="1057067125" to="677478177#6" departLane="best" type="bus_bus"/>
    <trip id="bus169" depart="141.56" from="38116089#4" to="-169002209#6" departLane="best" type="bus_bus"/>
    <trip id="bus170" depart="142.39" from="-1183843248#2" to="1187765472" departLane="best" type="bus_bus"/>
    <trip id="bus171" depart="143.23" from="421287872#10" to="38116070" departLane="best" type="bus_bus"/>
    <trip id="bus172" depart="144.07" from="-169196743#2" to="-1064106554#1" departLane="best" type="bus_bus"/>
    <trip id="bus173" depart="144.91" from="-265903497#15" to="1116351088#1" departLane="best" type="bus_bus"/>
    <trip id="bus174" depart="145.74" from="424007907#0" to="-1123830784" departLane="best" type="bus_bus"/>
    <trip id="bus175" depart="146.58" from="-694445112#4" to="168381165#3" departLane="best" type="bus_bus" departSpeed="max"/>
    <trip id="bus176" depart="147.42" from="-168901312#2" to="25457965#1" departLane="best" type="bus_bus"/>
    <trip id="bus177" depart="148.26" from="1059143627#1" to="-370547061#1" departLane="best" type="bus_bus"/>
    <trip id="bus178" depart="149.09" from="167468600#2" to="-1057069154" departLane="best" type="bus_bus"/>
    <trip id="bus179" depart="149.93" from="276169621#9" to="421280688#2" departLane="best" type="bus_bus"/>
    <trip id="bus180" depart="150.77" from="-1236543063" to="1057071801" departLane="best" type="bus_bus" departSpeed="max"/>
    <trip id="bus181" depart="151.61" from="-164910166#2" to="745652418#0" departLane="best" type="bus_bus"/>
    <trip id="bus182" depart="152.45" from="1075071930" to="-1076002269#3" departLane="best" type="bus_bus" departSpeed="max"/>
    <trip id="bus183" depart="153.28" from="-275139594#3" to="424036587#1" departLane="best" type="bus_bus"/>
    <trip id="bus184" depart="154.12" from="-777918880#3" to="422146774" departLane="best" type="bus_bus"/>
    <trip id="bus185" depart="154.96" from="168383153" to="80950066#1" departLane="best" type="bus_bus" departSpeed="max"/>
    <trip id="bus186" depart="155.80" from="1253229624" to="718260923" departLane="best" type="bus_bus"/>
    <trip id="bus187" depart="156.63" from="611866612#1" to="164910162#5" departLane="best" type="bus_bus"/>
    <trip id="bus188" depart="157.47" from="23151102#5" to="1187268470#0" departLane="best" type="bus_bus"/>
    <trip id="bus189" depart="158.31" from="421427853#3" to="1253564037" departLane="best" type="bus_bus"/>
    <trip id="bus190" depart="159.15" from="652550336#35" to="37222901#1" departLane="best" type="bus_bus"/>
    <trip id="bus191" depart="159.98" from="1057069135#1" to="-38116093#0" departLane="best" type="bus_bus"/>
    <trip id="bus192" depart="160.82" from="312031903#1" to="1203083885#1" departLane="best" type="bus_bus"/>
    <trip id="bus193" depart="161.66" from="1420705473" to="-421285588" departLane="best" type="bus_bus"/>
    <trip id="bus194" depart="162.50" from="-1125182350" to="-421290107#2" departLane="best" type="bus_bus"/>
    <trip id="bus195" depart="163.33" from="-370955229" to="-424021845#5" departLane="best" type="bus_bus" departSpeed="max"/>
    <trip id="bus196" depart="164.17" from="112102195" to="-1534772648#3" departLane="best" type="bus_bus"/>
    <trip id="bus197" depart="165.01" from="-235103451#0" to="24577414#1" departLane="best" type="bus_bus"/>
    <trip id="bus198" depart="165.85" from="220380726#4" to="-112102196#6" departLane="best" type="bus_bus"/>
    <trip id="bus199" depart="166.68" from="-686643979" to="1253229625" departLane="best" type="bus_bus" departSpeed="max"/>
    <trip id="bus200" depart="167.52" from="-696644447#1" to="-235103467#2" departLane="best" type="bus_bus" departSpeed="max"/>
    <trip id="bus201" depart="168.36" from="-696793464#1" to="684743328#7" departLane="best" type="bus_bus"/>
    <trip id="bus202" depart="169.20" from="1236550196" to="24577418#6" departLane="best" type="bus_bus" departSpeed="max"/>
    <trip id="bus203" depart="170.03" from="424014417#1" to="417158715#0" departLane="best" type="bus_bus"/>
    <trip id="bus204" depart="170.87" from="-45323270#7" to="-1057069166#0" departLane="best" type="bus_bus"/>
    <trip id="bus205" depart="171.71" from="-424007895" to="38116085#15" departLane="best" type="bus_bus" departSpeed="max"/>
    <trip id="bus206" depart="172.55" from="424014386" to="722082934#2" departLane="best" type="bus_bus"/>
    <trip id="bus207" depart="173.39" from="-696792605#1" to="37222919#6" departLane="best" type="bus_bus"/>
    <trip id="bus208" depart="174.22" from="1122576175" to="1534772678#4" departLane="best" type="bus_bus"/>
    <trip id="bus209" depart="175.06" from="-220380726#5" to="-265847405#1" departLane="best" type="bus_bus"/>
    <trip id="bus210" depart="175.90" from="-717457946" to="-1071428898#0" departLane="best" type="bus_bus"/>
    <trip id="bus211" depart="176.74" from="-423409326" to="23151102#25" departLane="best" type="bus_bus" departSpeed="max"/>
    <trip id="bus212" depart="177.57" from="-686613839" to="-168298463#2" departLane="best" type="bus_bus" departSpeed="max"/>
    <trip id="bus213" depart="178.41" from="132087594#11" to="-1071187610" departLane="best" type="bus_bus"/>
    <trip id="bus214" depart="179.25" from="-660172544#3" to="1255491846" departLane="best" type="bus_bus"/>
    <trip id="bus215" depart="180.09" from="-1071154837#0" to="169413595#5" departLane="best" type="bus_bus"/>
    <trip id="bus216" depart="180.92" from="-1255467751" to="1076522332#0" departLane="best" type="bus_bus" departSpeed="max"/>
    <trip id="bus217" depart="181.76" from="-1076026822" to="-717457954#2" departLane="best" type="bus_bus"/>
    <trip id="bus218" depart="182.60" from="-170000084#0" to="-44315453#8" departLane="best" type="bus_bus"/>
    <trip id="bus219" depart="183.44" from="292194570#0" to="-717457954#2" departLane="best" type="bus_bus"/>
    <trip id="bus220" depart="184.27" from="28121513#1" to="424014371" departLane="best" type="bus_bus"/>
    <trip id="bus221" depart="185.11" from="-276169621#2" to="-1184943494#0" departLane="best" type="bus_bus"/>
    <trip id="bus222" depart="185.95" from="-1057071812" to="1252814308" departLane="best" type="bus_bus" departSpeed="max"/>
    <trip id="bus223" depart="186.79" from="994855784#1" to="-686610228#2" departLane="best" type="bus_bus"/>
    <trip id="bus224" depart="187.62" from="164910162#7" to="421287883#20" departLane="best" type="bus_bus"/>
    <trip id="bus225" depart="188.46" from="164910172#1" to="38116087#3" departLane="best" type="bus_bus"/>
    <trip id="bus226" depart="189.30" from="716015301#1" to="-220416146#1" departLane="best" type="bus_bus"/>
    <trip id="bus227" depart="190.14" from="-1057071820#0" to="-164910182#1" departLane="best" type="bus_bus"/>
    <trip id="bus228" depart="190.98" from="-1253890951" to="220385651#5" departLane="best" type="bus_bus" departSpeed="max"/>
    <trip id="bus229" depart="191.81" from="1187268488#1" to="-265763297#5" departLane="best" type="bus_bus"/>
    <trip id="bus230" depart="192.65" from="186810181#2" to="418982758#1" departLane="best" type="bus_bus"/>
    <trip id="bus231" depart="193.49" from="-1539445376#2" to="162072140#1" departLane="best" type="bus_bus"/>
    <trip id="bus232" depart="194.33" from="275139602#0" to="-1255162855#1" departLane="best" type="bus_bus" departSpeed="max"/>
    <trip id="bus233" depart="195.16" from="421287877#3" to="76834886#1" departLane="best" type="bus_bus"/>
    <trip id="bus234" depart="196.00" from="-1236568327" to="-1071155821" departLane="best" type="bus_bus" departSpeed="max"/>
    <trip id="bus235" depart="196.84" from="-421290126#3" to="23151096#0" departLane="best" type="bus_bus"/>
    <trip id="bus236" depart="197.68" from="732001894" to="-80440840#13" departLane="best" type="bus_bus"/>
    <trip id="bus237" depart="198.51" from="23151090#35" to="-1147017734#1" departLane="best" type="bus_bus"/>
    <trip id="bus238" depart="199.35" from="170000079#0" to="167468632#3" departLane="best" type="bus_bus"/>
    <trip id="bus239" depart="200.19" from="-1205136335#0" to="421280704#2" departLane="best" type="bus_bus"/>
    <trip id="bus240" depart="201.03" from="424007912#3" to="152784363#7" departLane="best" type="bus_bus"/>
    <trip id="bus241" depart="201.86" from="-1253535601" to="80508234#0" departLane="best" type="bus_bus"/>
    <trip id="bus242" depart="202.70" from="37222899#2" to="-681852565" departLane="best" type="bus_bus"/>
    <trip id="bus243" depart="203.54" from="-707027021#0" to="-706609020#1" departLane="best" type="bus_bus"/>
    <trip id="bus244" depart="204.38" from="1071504734" to="-660172544#3" departLane="best" type="bus_bus"/>
    <trip id="bus245" depart="205.21" from="424007905" to="423621942#11" departLane="best" type="bus_bus"/>
    <trip id="bus246" depart="206.05" from="-1236504892" to="760525678#2" departLane="best" type="bus_bus" departSpeed="max"/>
    <trip id="bus247" depart="206.89" from="1502797498#9" to="424007909#2" departLane="best" type="bus_bus"/>
    <trip id="bus248" depart="207.73" from="220381925#0" to="1071187611#1" departLane="best" type="bus_bus"/>
    <trip id="bus249" depart="208.56" from="1116252900" to="1122583313" departLane="best" type="bus_bus"/>
    <trip id="bus250" depart="209.40" from="-717457945#1" to="370543236" departLane="best" type="bus_bus" departSpeed="max"/>
    <trip id="bus251" depart="210.24" from="-370902452#1" to="424053611#4" departLane="best" type="bus_bus"/>
    <trip id="bus252" depart="211.08" from="421427853#5" to="-1187765472" departLane="best" type="bus_bus"/>
    <trip id="bus253" depart="211.92" from="566680385" to="-370546886#2" departLane="best" type="bus_bus" departSpeed="max"/>
    <trip id="bus254" depart="212.75" from="-813854185#2" to="164702314#6" departLane="best" type="bus_bus" departSpeed="max"/>
    <trip id="bus255" depart="213.59" from="-45323262#2" to="-1071428195" departLane="best" type="bus_bus" departSpeed="max"/>