<?xml version="1.0" encoding="UTF-8"?>

<!-- generated on 2026-07-21 18:22:39.761725 by Eclipse SUMO osmWebWizard.py v1_27_1+0000-7717f2379d9
<configuration>
    <net-file value="C:\Users\sudha\Sumo\2026-07-21-18-16-49\osm.net.xml.gz"/>
    <output-trip-file value="C:\Users\sudha\Sumo\2026-07-21-18-16-49\osm.passenger.trips.xml"/>
    <route-file value="C:\Users\sudha\Sumo\2026-07-21-18-16-49\osm.passenger.rou.xml"/>
    <prefix value="veh"/>
    <trip-attributes value="departLane=&quot;best&quot;"/>
    <fringe-start-attributes value="departSpeed=&quot;max&quot;"/>
    <vehicle-class value="passenger"/>
    <lanes value="True"/>
    <fringe-factor value="5"/>
    <allow-fringe.min-length value="1000.0"/>
    <edge-permission value="passenger"/>
    <via-edge-types value="highway.motorway,highway.motorway_link,highway.trunk_link,highway.primary_link,highway.secondary_link,highway.tertiary_link"/>
    <seed value="44"/>
    <min-distance value="300.0"/>
    <min-distance.fringe value="10.0"/>
    <remove-loops value="True"/>
    <insertion-density value="12.0"/>
</configuration>
-->

<routes xmlns:xsi="http://www.w3.org/2001/XMLSchema-instance" xsi:noNamespaceSchemaLocation="http://sumo.dlr.de/xsd/routes_file.xsd">
    <vType id="veh_passenger" vClass="passenger"/>
    <trip id="veh0" depart="0.00" from="-766036528#1" to="1323841211#0" departLane="best" type="veh_passenger"/>
    <trip id="veh1" depart="0.28" from="571168752" to="-205080620" departLane="best" type="veh_passenger"/>
    <trip id="veh2" depart="0.56" from="-26664738#9" to="-1071450125" departLane="best" type="veh_passenger"/>
    <trip id="veh3" depart="0.84" from="-1255149667#1" to="-1057069664#0" departLane="best" type="veh_passenger" departSpeed="max"/>
    <trip id="veh4" depart="1.12" from="-163193933#4" to="1254861061#1" departLane="best" type="veh_passenger"/>
    <trip id="veh5" depart="1.40" from="80958874#15" to="296963059#0" departLane="best" type="veh_passenger"/>
    <trip id="veh6" depart="1.68" from="24577381#7" to="-686691352#1" departLane="best" type="veh_passenger"/>
    <trip id="veh7" depart="1.96" from="-1150892096" to="562479736#1" departLane="best" type="veh_passenger" departSpeed="max"/>
    <trip id="veh8" depart="2.24" from="167468598#9" to="-1306344567#0" departLane="best" type="veh_passenger"/>
    <trip id="veh9" depart="2.52" from="-1126669172" to="-1253123060" departLane="best" type="veh_passenger"/>
    <trip id="veh10" depart="2.80" from="76834886#1" to="-1255500974" departLane="best" type="veh_passenger"/>
    <trip id="veh11" depart="3.08" from="167468632#4" to="77355810#7" departLane="best" type="veh_passenger"/>
    <trip id="veh12" depart="3.36" from="-1074715751#1" to="1057070840#1" departLane="best" type="veh_passenger"/>
    <trip id="veh13" depart="3.64" from="1076002271#1" to="697289106#5" departLane="best" type="veh_passenger"/>
    <trip id="veh14" depart="3.92" from="-169421708#4" to="-421289061#3" departLane="best" type="veh_passenger"/>
    <trip id="veh15" depart="4.20" from="-370955231" to="-1076522332#8" departLane="best" type="veh_passenger"/>
    <trip id="veh16" depart="4.48" from="23134680#0" to="424036574" departLane="best" type="veh_passenger"/>
    <trip id="veh17" depart="4.76" from="1057069634" to="-1074792173#0" departLane="best" type="veh_passenger" departSpeed="max"/>
    <trip id="veh18" depart="5.04" from="275139602#0" to="39013525" departLane="best" type="veh_passenger" departSpeed="max"/>
    <trip id="veh19" depart="5.32" from="170767283#2-AddedOffRampEdge" to="-694445112#3" departLane="best" type="veh_passenger"/>
    <trip id="veh20" depart="5.60" from="424021868#1" to="205080617#2" departLane="best" type="veh_passenger"/>
    <trip id="veh21" depart="5.88" from="1465354493#0" to="132087595#4" departLane="best" type="veh_passenger"/>
    <trip id="veh22" depart="6.16" from="-287653329#1" to="1181940101" departLane="best" type="veh_passenger" departSpeed="max"/>
    <trip id="veh23" depart="6.44" from="421287883#12" to="28153848#10" departLane="best" type="veh_passenger"/>
    <trip id="veh24" depart="6.72" from="-45323264" to="424036589#3" departLane="best" type="veh_passenger" departSpeed="max"/>
    <trip id="veh25" depart="7.00" from="447654047" to="-1075951927#1" departLane="best" type="veh_passenger" departSpeed="max"/>
    <trip id="veh26" depart="7.28" from="-164702314#3" to="-370902443#0" departLane="best" type="veh_passenger"/>
    <trip id="veh27" depart="7.56" from="-1057070843" to="421285593" departLane="best" type="veh_passenger" departSpeed="max"/>
    <trip id="veh28" depart="7.84" from="169421719" to="1345093243#0" departLane="best" type="veh_passenger"/>
    <trip id="veh29" depart="8.12" from="871032376#3" to="-774611611#0" departLane="best" type="veh_passenger"/>
    <trip id="veh30" depart="8.40" from="-205080622#0" to="-1306113164" departLane="best" type="veh_passenger"/>
    <trip id="veh31" depart="8.68" from="-424036589#3" to="556741442" departLane="best" type="veh_passenger" departSpeed="max"/>
    <trip id="veh32" depart="8.95" from="1541038918#8" to="-112102221#0" departLane="best" type="veh_passenger"/>
    <trip id="veh33" depart="9.23" from="1057067166" to="-1076491384#2" departLane="best" type="veh_passenger"/>
    <trip id="veh34" depart="9.51" from="167468622#0" to="-1495477899#5" departLane="best" type="veh_passenger" departSpeed="max"/>
    <trip id="veh35" depart="9.79" from="-169002217#7" to="23151095#2" departLane="best" type="veh_passenger"/>
    <trip id="veh36" depart="10.07" from="424053611#1" to="170767287#1" departLane="best" type="veh_passenger"/>
    <trip id="veh37" depart="10.35" from="-421285576#9" to="-1057069633" departLane="best" type="veh_passenger"/>
    <trip id="veh38" depart="10.63" from="-421285586" to="287667959#1" departLane="best" type="veh_passenger" departSpeed="max"/>
    <trip id="veh39" depart="10.91" from="168275206#4" to="-243329206#5" departLane="best" type="veh_passenger"/>
    <trip id="veh40" depart="11.19" from="44831985#0" to="45323270#7" departLane="best" type="veh_passenger" departSpeed="max"/>
    <trip id="veh41" depart="11.47" from="-417156347#7" to="-1123830771#1" departLane="best" type="veh_passenger"/>
    <trip id="veh42" depart="11.75" from="1183871847" to="652550333#2" departLane="best" type="veh_passenger" departSpeed="max"/>
    <trip id="veh43" depart="12.03" from="1086398824#1" to="-424014366#0" departLane="best" type="veh_passenger"/>
    <trip id="veh44" depart="12.31" from="-422146797" to="1071482500#9" departLane="best" type="veh_passenger" departSpeed="max"/>
    <trip id="veh45" depart="12.59" from="1252735454" to="722082934#1" departLane="best" type="veh_passenger"/>
    <trip id="veh46" depart="12.87" from="-1181940101" to="1122581918" departLane="best" type="veh_passenger" departSpeed="max"/>
    <trip id="veh47" depart="13.15" from="170000087#0" to="696664269#2" departLane="best" type="veh_passenger" departSpeed="max"/>
    <trip id="veh48" depart="13.43" from="-1187735938" to="690251653#1" departLane="best" type="veh_passenger" departSpeed="max"/>
    <trip id="veh49" depart="13.71" from="38116092#2" to="-423619338#5" departLane="best" type="veh_passenger"/>
    <trip id="veh50" depart="13.99" from="1203083885#1" to="44316350#3" departLane="best" type="veh_passenger"/>
    <trip id="veh51" depart="14.27" from="-370533500#1" to="338959812#8" departLane="best" type="veh_passenger"/>
    <trip id="veh52" depart="14.55" from="1255162855#1" to="-1184930811#1" departLane="best" type="veh_passenger"/>
    <trip id="veh53" depart="14.83" from="-421285576#4" to="1075071928" departLane="best" type="veh_passenger"/>
    <trip id="veh54" depart="15.11" from="-1456178631" to="722082959#3" departLane="best" type="veh_passenger" departSpeed="max"/>
    <trip id="veh55" depart="15.39" from="-370955251#0" to="-38116068#6" departLane="best" type="veh_passenger"/>
    <trip id="veh56" depart="15.67" from="1517211910#1" to="1290450966#8" departLane="best" type="veh_passenger"/>
    <trip id="veh57" depart="15.95" from="-424007888" to="-686674264#0" departLane="best" type="veh_passenger" departSpeed="max"/>
    <trip id="veh58" depart="16.23" from="112102220" to="696644443#1" departLane="best" type="veh_passenger"/>
    <trip id="veh59" depart="16.51" from="716608419#4" to="28153840#4" departLane="best" type="veh_passenger"/>
    <trip id="veh60" depart="16.79" from="421427848#6" to="1057070274" departLane="best" type="veh_passenger"/>
    <trip id="veh61" depart="17.07" from="77011093#0" to="417157131#3" departLane="best" type="veh_passenger" departSpeed="max"/>
    <trip id="veh62" depart="17.35" from="243329208#1" to="1130615462#2" departLane="best" type="veh_passenger"/>
    <trip id="veh63" depart="17.63" from="-265763295#2" to="295378946#2" departLane="best" type="veh_passenger"/>
    <trip id="veh64" depart="17.91" from="31756484#0" to="-1057069158" departLane="best" type="veh_passenger"/>
    <trip id="veh65" depart="18.19" from="-423593971#2" to="1312986296" departLane="best" type="veh_passenger"/>
    <trip id="veh66" depart="18.47" from="-235103468#15" to="-1541038918#1" departLane="best" type="veh_passenger"/>
    <trip id="veh67" depart="18.75" from="-169421704#6" to="-1057070855" departLane="best" type="veh_passenger"/>
    <trip id="veh68" depart="19.03" from="-1255199346#6" to="1057071831" departLane="best" type="veh_passenger"/>
    <trip id="veh69" depart="19.31" from="1123520230" to="229930509#2" departLane="best" type="veh_passenger" departSpeed="max"/>
    <trip id="veh70" depart="19.59" from="-423556998#1" to="-1539399716#1" departLane="best" type="veh_passenger" departSpeed="max"/>
    <trip id="veh71" depart="19.87" from="23151102#2" to="292194566#7" departLane="best" type="veh_passenger"/>
    <trip id="veh72" depart="20.15" from="-424007909#0" to="168381168#1" departLane="best" type="veh_passenger"/>
    <trip id="veh73" depart="20.43" from="-424007887" to="24563338#0-AddedOnRampEdge" departLane="best" type="veh_passenger" departSpeed="max"/>
    <trip id="veh74" depart="20.71" from="423621942#0" to="-1057071802" departLane="best" type="veh_passenger"/>
    <trip id="veh75" depart="20.99" from="421289051#1" to="-132087598#4" departLane="best" type="veh_passenger"/>
    <trip id="veh76" depart="21.27" from="-1057071793" to="-1187268497#0" departLane="best" type="veh_passenger"/>
    <trip id="veh77" depart="21.55" from="1255199346#9" to="585446277#1" departLane="best" type="veh_passenger"/>
    <trip id="veh78" depart="21.83" from="70258954#3" to="-169196748" departLane="best" type="veh_passenger"/>
    <trip id="veh79" depart="22.11" from="-994855784#3" to="719554033#1" departLane="best" type="veh_passenger" departSpeed="max"/>
    <trip id="veh80" depart="22.39" from="669010727#0" to="44317041#1" departLane="best" type="veh_passenger"/>
    <trip id="veh81" depart="22.67" from="-370955232" to="-423557017#1" departLane="best" type="veh_passenger" departSpeed="max"/>
    <trip id="veh82" depart="22.95" from="-1534772651#0" to="-421427836#3" departLane="best" type="veh_passenger"/>
    <trip id="veh83" depart="23.23" from="-739750546#4" to="424007880#0" departLane="best" type="veh_passenger"/>
    <trip id="veh84" depart="23.51" from="176492750#0" to="-176466552#1" departLane="best" type="veh_passenger"/>
    <trip id="veh85" depart="23.79" from="-169002217#18" to="1131593683" departLane="best" type="veh_passenger"/>
    <trip id="veh86" depart="24.07" from="421285584" to="292194566#1" departLane="best" type="veh_passenger" departSpeed="max"/>
    <trip id="veh87" depart="24.35" from="-694445112#2" to="1183843248#5" departLane="best" type="veh_passenger"/>
    <trip id="veh88" depart="24.63" from="421427840" to="-423619338#6" departLane="best" type="veh_passenger" departSpeed="max"/>
    <trip id="veh89" depart="24.91" from="-170000088#4" to="555197213#1" departLane="best" type="veh_passenger"/>
    <trip id="veh90" depart="25.19" from="1076344182" to="23151090#32" departLane="best" type="veh_passenger" departSpeed="max"/>
    <trip id="veh91" depart="25.47" from="-26664738#7" to="1079688463" departLane="best" type="veh_passenger"/>
    <trip id="veh92" depart="25.75" from="-1074385951#6" to="-423409330#1" departLane="best" type="veh_passenger" departSpeed="max"/>
    <trip id="veh93" depart="26.03" from="720183812#1" to="112102209" departLane="best" type="veh_passenger"/>
    <trip id="veh94" depart="26.31" from="-1057069134" to="424007920" departLane="best" type="veh_passenger" departSpeed="max"/>
    <trip id="veh95" depart="26.58" from="-422146825#0" to="-176466565#3" departLane="best" type="veh_passenger"/>
    <trip id="veh96" depart="26.86" from="169411882#5" to="265747903#4" departLane="best" type="veh_passenger"/>
    <trip id="veh97" depart="27.14" from="-424014369" to="370955247#1" departLane="best" type="veh_passenger" departSpeed="max"/>
    <trip id="veh98" depart="27.42" from="652550336#22" to="-706609028#1" departLane="best" type="veh_passenger"/>
    <trip id="veh99" depart="27.70" from="112102221#8" to="-1057069167" departLane="best" type="veh_passenger"/>
    <trip id="veh100" depart="27.98" from="1469358539#1" to="-424021868#3" departLane="best" type="veh_passenger"/>
    <trip id="veh101" depart="28.26" from="170000092#3" to="421287883#6" departLane="best" type="veh_passenger"/>
    <trip id="veh102" depart="28.54" from="-424053600" to="265847407" departLane="best" type="veh_passenger"/>
    <trip id="veh103" depart="28.82" from="718274364" to="-170000078#0" departLane="best" type="veh_passenger"/>
    <trip id="veh104" depart="29.10" from="421289065#10" to="1187744411" departLane="best" type="veh_passenger"/>
    <trip id="veh105" depart="29.38" from="-696793463" to="-169413602#1" departLane="best" type="veh_passenger" departSpeed="max"/>
    <trip id="veh106" depart="29.66" from="-417010624#0" to="683766463" departLane="best" type="veh_passenger"/>
    <trip id="veh107" depart="29.94" from="1190556800" to="-775969287" departLane="best" type="veh_passenger" departSpeed="max"/>
    <trip id="veh108" depart="30.22" from="77011093#0" to="-1077590084#0" departLane="best" type="veh_passenger" departSpeed="max"/>
    <trip id="veh109" depart="30.50" from="-1057071819" to="421454662" departLane="best" type="veh_passenger"/>
    <trip id="veh110" depart="30.78" from="1254857434#11" to="527703957" departLane="best" type="veh_passenger"/>
    <trip id="veh111" depart="31.06" from="-424021825" to="-371321386#1" departLane="best" type="veh_passenger"/>
    <trip id="veh112" depart="31.34" from="662141606#4-AddedOffRampEdge" to="1311754925#2" departLane="best" type="veh_passenger"/>
    <trip id="veh113" depart="31.62" from="-1071490875#0" to="-1057070262" departLane="best" type="veh_passenger"/>
    <trip id="veh114" depart="31.90" from="-1057070856#0" to="38116078#1" departLane="best" type="veh_passenger"/>
    <trip id="veh115" depart="32.18" from="169413583#0" to="-1306750873" departLane="best" type="veh_passenger" departSpeed="max"/>
    <trip id="veh116" depart="32.46" from="421289057" to="422146772" departLane="best" type="veh_passenger"/>
    <trip id="veh117" depart="32.74" from="169002209#0" to="164910162#7" departLane="best" type="veh_passenger"/>
    <trip id="veh118" depart="33.02" from="1057069150#0" to="296963058#3" departLane="best" type="veh_passenger"/>
    <trip id="veh119" depart="33.30" from="-706609020#0" to="708488753#1" departLane="best" type="veh_passenger"/>
    <trip id="veh120" depart="33.58" from="1469358537" to="26662836#1" departLane="best" type="veh_passenger" departSpeed="max"/>
    <trip id="veh121" depart="33.86" from="70258955" to="80950012#5" departLane="best" type="veh_passenger"/>
    <trip id="veh122" depart="34.14" from="1187268512#4" to="70258955" departLane="best" type="veh_passenger"/>
    <trip id="veh123" depart="34.42" from="-23151090#25" to="-421287883#11" departLane="best" type="veh_passenger"/>
    <trip id="veh124" depart="34.70" from="-421285599#2" to="-38116073#4" departLane="best" type="veh_passenger"/>
    <trip id="veh125" depart="34.98" from="423409803#2" to="1312986296" departLane="best" type="veh_passenger"/>
    <trip id="veh126" depart="35.26" from="-1187747809" to="1253887462" departLane="best" type="veh_passenger"/>
    <trip id="veh127" depart="35.54" from="24577416#1" to="-1071435890#1" departLane="best" type="veh_passenger"/>
    <trip id="veh128" depart="35.82" from="-202800238#3" to="-1057070839#0" departLane="best" type="veh_passenger" departSpeed="max"/>
    <trip id="veh129" depart="36.10" from="24577416#3" to="1071431485#0" departLane="best" type="veh_passenger"/>
    <trip id="veh130" depart="36.38" from="-1057070837#0" to="-421280690#1" departLane="best" type="veh_passenger"/>
    <trip id="veh131" depart="36.66" from="-170000083#4" to="1537097129#3" departLane="best" type="veh_passenger"/>
    <trip id="veh132" depart="36.94" from="-424014418#0" to="-1075056951#2" departLane="best" type="veh_passenger"/>
    <trip id="veh133" depart="37.22" from="-424014395#0" to="220381922#0" departLane="best" type="veh_passenger"/>
    <trip id="veh134" depart="37.50" from="1211179304#7" to="167468615#3" departLane="best" type="veh_passenger"/>
    <trip id="veh135" depart="37.78" from="-164910162#1" to="-1075325784#1" departLane="best" type="veh_passenger"/>
    <trip id="veh136" depart="38.06" from="37703539#4" to="37222895#7" departLane="best" type="veh_passenger"/>
    <trip id="veh137" depart="38.34" from="176492655#1" to="77339655#8" departLane="best" type="veh_passenger"/>
    <trip id="veh138" depart="38.62" from="-423409326" to="38116089#9" departLane="best" type="veh_passenger" departSpeed="max"/>
    <trip id="veh139" depart="38.90" from="-421427851#1" to="169196737#2" departLane="best" type="veh_passenger" departSpeed="max"/>
    <trip id="veh140" depart="39.18" from="686650222#1" to="1181940101" departLane="best" type="veh_passenger"/>
    <trip id="veh141" depart="39.46" from="164910181#3" to="813012744" departLane="best" type="veh_passenger"/>
    <trip id="veh142" depart="39.74" from="763534651#3" to="26664738#9" departLane="best" type="veh_passenger"/>
    <trip id="veh143" depart="40.02" from="-424014393#0" to="-423557018#1" departLane="best" type="veh_passenger"/>
    <trip id="veh144" depart="40.30" from="-1059143626#0" to="-1219970955#1" departLane="best" type="veh_passenger"/>
    <trip id="veh145" depart="40.58" from="777925978#0" to="1495477899#5" departLane="best" type="veh_passenger"/>
    <trip id="veh146" depart="40.86" from="44831985#0" to="370904810#0" departLane="best" type="veh_passenger" departSpeed="max"/>
    <trip id="veh147" depart="41.14" from="652550336#12" to="1205701707#4" departLane="best" type="veh_passenger"/>
    <trip id="veh148" depart="41.42" from="696605895" to="1537097129#2" departLane="best" type="veh_passenger" departSpeed="max"/>
    <trip id="veh149" depart="41.70" from="-1489755469" to="696302916#0" departLane="best" type="veh_passenger"/>
    <trip id="veh150" depart="41.98" from="1253123060" to="1071428898#4" departLane="best" type="veh_passenger" departSpeed="max"/>
    <trip id="veh151" depart="42.26" from="1187268483#3" to="1038680110#1" departLane="best" type="veh_passenger"/>
    <trip id="veh152" depart="42.54" from="-1183851859#0" to="-1076052386#1" departLane="best" type="veh_passenger"/>
    <trip id="veh153" depart="42.82" from="-527703954#1" to="-1070833839#1" departLane="best" type="veh_passenger" departSpeed="max"/>
    <trip id="veh154" depart="43.10" from="-718260927#0" to="220385651#12" departLane="best" type="veh_passenger"/>
    <trip id="veh155" depart="43.38" from="169196741#1" to="696793466#0" departLane="best" type="veh_passenger"/>
    <trip id="veh156" depart="43.66" from="-533569861#5" to="766036523#0" departLane="best" type="veh_passenger"/>
    <trip id="veh157" depart="43.94" from="-1057070298#1" to="-169221587#2" departLane="best" type="veh_passenger"/>
    <trip id="veh158" depart="44.21" from="-777925978#2" to="423409320" departLane="best" type="veh_passenger"/>
    <trip id="veh159" depart="44.49" from="1252721554#2" to="-103505905#1" departLane="best" type="veh_passenger"/>
    <trip id="veh160" depart="44.77" from="-706609028#1" to="23151090#3" departLane="best" type="veh_passenger"/>
    <trip id="veh161" depart="45.05" from="-38116093#1" to="-23151090#38" departLane="best" type="veh_passenger"/>
    <trip id="veh162" depart="45.33" from="80950098#8" to="760525678#1" departLane="best" type="veh_passenger"/>
    <trip id="veh163" depart="45.61" from="-423409804#1" to="-1071554035" departLane="best" type="veh_passenger"/>
    <trip id="veh164" depart="45.89" from="-169002209#3" to="1100749835" departLane="best" type="veh_passenger"/>
    <trip id="veh165" depart="46.17" from="-813854184#2" to="1090402170#1" departLane="best" type="veh_passenger" departSpeed="max"/>
    <trip id="veh166" depart="46.45" from="-1187751116" to="-45323261#5" departLane="best" type="veh_passenger"/>
    <trip id="veh167" depart="46.73" from="-773114810#0" to="421285599#3" departLane="best" type="veh_passenger"/>
    <trip id="veh168" depart="47.01" from="-1254861061#1" to="220380727#0" departLane="best" type="veh_passenger" departSpeed="max"/>
    <trip id="veh169" depart="47.29" from="-696644447#1" to="422146763#11" departLane="best" type="veh_passenger" departSpeed="max"/>
    <trip id="veh170" depart="47.57" from="23151102#45" to="-242476856#0" departLane="best" type="veh_passenger"/>
    <trip id="veh171" depart="47.85" from="1312784808" to="-417010628#7" departLane="best" type="veh_passenger"/>
    <trip id="veh172" depart="48.13" from="570827854#1" to="-424014378#1" departLane="best" type="veh_passenger"/>
    <trip id="veh173" depart="48.41" from="24577372#3" to="773114809#2" departLane="best" type="veh_passenger"/>
    <trip id="veh174" depart="48.69" from="-1238033031#1" to="664985708#4" departLane="best" type="veh_passenger"/>
    <trip id="veh175" depart="48.97" from="-168898783#1" to="1149879785" departLane="best" type="veh_passenger"/>
    <trip id="veh176" depart="49.25" from="-1255161710" to="710522944#1" departLane="best" type="veh_passenger"/>
    <trip id="veh177" depart="49.53" from="-423593946#3" to="1255149667#1" departLane="best" type="veh_passenger"/>
    <trip id="veh178" depart="49.81" from="77349522#3" to="-167468622#2" departLane="best" type="veh_passenger"/>
    <trip id="veh179" depart="50.09" from="-1183888927#0" to="311783751" departLane="best" type="veh_passenger"/>
    <trip id="veh180" depart="50.37" from="-1076235983#2" to="-1534772657#5" departLane="best" type="veh_passenger"/>
    <trip id="veh181" depart="50.65" from="-38116077#1" to="-1057070271" departLane="best" type="veh_passenger"/>
    <trip id="veh182" depart="50.93" from="-44315453#7" to="-1118600424#8" departLane="best" type="veh_passenger"/>
    <trip id="veh183" depart="51.21" from="-1071520558" to="421280695#4" departLane="best" type="veh_passenger"/>
    <trip id="veh184" depart="51.49" from="-296334757#1" to="672161238#4" departLane="best" type="veh_passenger"/>
    <trip id="veh185" depart="51.77" from="-1074715757" to="-1489755480#5" departLane="best" type="veh_passenger"/>
    <trip id="veh186" depart="52.05" from="-686636167#4" to="44316330" departLane="best" type="veh_passenger"/>
    <trip id="veh187" depart="52.33" from="707576445" to="77349469#3" departLane="best" type="veh_passenger"/>
    <trip id="veh188" depart="52.61" from="-23151088#7" to="1036372979#1" departLane="best" type="veh_passenger"/>
    <trip id="veh189" depart="52.89" from="563791819#4" to="424021865#1" departLane="best" type="veh_passenger"/>
    <trip id="veh190" depart="53.17" from="717457947" to="-1200970624#0" departLane="best" type="veh_passenger" departSpeed="max"/>
    <trip id="veh191" depart="53.45" from="-1075056956#0" to="1071482500#0" departLane="best" type="veh_passenger"/>
    <trip id="veh192" depart="53.73" from="45323270#6" to="288500048#1" departLane="best" type="veh_passenger"/>
    <trip id="veh193" depart="54.01" from="-777673851" to="28121614#3" departLane="best" type="veh_passenger" departSpeed="max"/>
    <trip id="veh194" depart="54.29" from="1057070842#0" to="533569861#11" departLane="best" type="veh_passenger" departSpeed="max"/>
    <trip id="veh195" depart="54.57" from="-421427847#3" to="421285578" departLane="best" type="veh_passenger"/>
    <trip id="veh196" depart="54.85" from="-1539445376#2" to="167468624#3" departLane="best" type="veh_passenger"/>
    <trip id="veh197" depart="55.13" from="-423619316#2" to="-706609014#2" departLane="best" type="veh_passenger" departSpeed="max"/>
    <trip id="veh198" depart="55.41" from="-421280661#1" to="-1071531435" departLane="best" type="veh_passenger" departSpeed="max"/>
    <trip id="veh199" depart="55.69" from="-1212071851#5" to="265903506#3" departLane="best" type="veh_passenger"/>
    <trip id="veh200" depart="55.97" from="205080614#0" to="24577389#2" departLane="best" type="veh_passenger"/>
    <trip id="veh201" depart="56.25" from="1057067135" to="167468625#1" departLane="best" type="veh_passenger"/>
    <trip id="veh202" depart="56.53" from="421287883#19" to="80950064#4" departLane="best" type="veh_passenger"/>
    <trip id="veh203" depart="56.81" from="-707027023#1" to="421280688#2" departLane="best" type="veh_passenger" departSpeed="max"/>
    <trip id="veh204" depart="57.09" from="423409330#1" to="563791822#0" departLane="best" type="veh_passenger"/>
    <trip id="veh205" depart="57.37" from="220385651#12" to="-371321386#2" departLane="best" type="veh_passenger"/>
    <trip id="veh206" depart="57.65" from="423409334#0" to="1502797498#5" departLane="best" type="veh_passenger"/>
    <trip id="veh207" depart="57.93" from="370543239#0" to="418982759#2" departLane="best" type="veh_passenger"/>
    <trip id="veh208" depart="58.21" from="-23151090#17" to="-1183848300" departLane="best" type="veh_passenger"/>
    <trip id="veh209" depart="58.49" from="417157125#5" to="265847405#2" departLane="best" type="veh_passenger"/>
    <trip id="veh210" depart="58.77" from="-1057071807" to="-1076238139" departLane="best" type="veh_passenger"/>
    <trip id="veh211" depart="59.05" from="-80950096#3" to="24563338#0" departLane="best" type="veh_passenger"/>
    <trip id="veh212" depart="59.33" from="-1255479661" to="312031901" departLane="best" type="veh_passenger" departSpeed="max"/>
    <trip id="veh213" depart="59.61" from="-45323260#7" to="235103468#6" departLane="best" type="veh_passenger"/>
    <trip id="veh214" depart="59.89" from="-421285577#5" to="-38116085#0" departLane="best" type="veh_passenger" departSpeed="max"/>
    <trip id="veh215" depart="60.17" from="-152784363#2" to="287653320#2" departLane="best" type="veh_passenger"/>
    <trip id="veh216" depart="60.45" from="167468618#3" to="-1183832923#0" departLane="best" type="veh_passenger"/>
    <trip id="veh217" depart="60.73" from="-1253887463" to="555197196#4" departLane="best" type="veh_passenger"/>
    <trip id="veh218" depart="61.01" from="-417156340#18" to="710621825#2" departLane="best" type="veh_passenger"/>
    <trip id="veh219" depart="61.29" from="776560305#0" to="424014444#5" departLane="best" type="veh_passenger"/>
    <trip id="veh220" depart="61.57" from="-1455393173#1" to="-1255167142" departLane="best" type="veh_passenger" departSpeed="max"/>
    <trip id="veh221" depart="61.84" from="424014444#5" to="1075957980#1" departLane="best" type="veh_passenger"/>
    <trip id="veh222" depart="62.12" from="-1074385951#0" to="-1255169230#0" departLane="best" type="veh_passenger"/>
    <trip id="veh223" depart="62.40" from="-421290126#6" to="-421280704#0" departLane="best" type="veh_passenger" departSpeed="max"/>
    <trip id="veh224" depart="62.68" from="-1075008632" to="37222901#7" departLane="best" type="veh_passenger"/>
    <trip id="veh225" depart="62.96" from="-1118871259" to="-424014416#0" departLane="best" type="veh_passenger" departSpeed="max"/>
    <trip id="veh226" depart="63.24" from="25457965#1" to="421280704#1" departLane="best" type="veh_passenger"/>
    <trip id="veh227" depart="63.52" from="421285599#0" to="-38116094#3" departLane="best" type="veh_passenger"/>
    <trip id="veh228" depart="63.80" from="-167468622#2" to="176466557#0" departLane="best" type="veh_passenger"/>
    <trip id="veh229" depart="64.08" from="422146754#2" to="417156340#11" departLane="best" type="veh_passenger"/>
    <trip id="veh230" depart="64.36" from="370533503#1" to="1075651200#1" departLane="best" type="veh_passenger"/>
    <trip id="veh231" depart="64.64" from="28121486#4" to="696302918#2" departLane="best" type="veh_passenger"/>
    <trip id="veh232" depart="64.92" from="167454899#11" to="-167468614#3" departLane="best" type="veh_passenger"/>
    <trip id="veh233" depart="65.20" from="424014405" to="-1074413053" departLane="best" type="veh_passenger"/>
    <trip id="veh234" depart="65.48" from="-1057070285#0" to="-44352053#4" departLane="best" type="veh_passenger"/>
    <trip id="veh235" depart="65.76" from="-686669562" to="773765063#1" departLane="best" type="veh_passenger"/>
    <trip id="veh236" depart="66.04" from="31756484#10" to="1118600424#0" departLane="best" type="veh_passenger"/>
    <trip id="veh237" depart="66.32" from="1306342925#1" to="1075725532#1" departLane="best" type="veh_passenger"/>
    <trip id="veh238" depart="66.60" from="686170017#0" to="170767283#2-AddedOffRampEdge" departLane="best" type="veh_passenger"/>
    <trip id="veh239" depart="66.88" from="-672161236#8" to="717046638#1" departLane="best" type="veh_passenger"/>
    <trip id="veh240" depart="67.16" from="423593971#4" to="1074715756#1" departLane="best" type="veh_passenger"/>
    <trip id="veh241" depart="67.44" from="652550336#28" to="1133394928#1" departLane="best" type="veh_passenger"/>