<?xml version="1.0" encoding="UTF-8"?>

<!-- generated on 2026-07-21 18:17:56.098568 by Eclipse SUMO osmWebWizard.py v1_27_1+0000-7717f2379d9
<configuration>
    <net-file value="C:\Users\sudha\Sumo\2026-07-21-18-16-49\osm.net.xml.gz"/>
    <ptlines-file value="C:\Users\sudha\Sumo\2026-07-21-18-16-49\osm_ptlines.xml"/>
    <ptstops-file value="C:\Users\sudha\Sumo\2026-07-21-18-16-49\osm_stops.add.xml"/>
    <output-file value="C:\Users\sudha\Sumo\2026-07-21-18-16-49\osm_pt.rou.xml"/>
    <stopinfos-file value="C:\Users\sudha\Sumo\2026-07-21-18-16-49\stopinfos.xml"/>
    <routes-file value="C:\Users\sudha\Sumo\2026-07-21-18-16-49\vehroutes.xml"/>
    <trips-file value="C:\Users\sudha\Sumo\2026-07-21-18-16-49\trips.trips.xml"/>
    <min-stops value="0"/>
    <extend-to-fringe value="True"/>
    <random-begin value="True"/>
    <seed value="42"/>
    <ignore-errors value="True"/>
    <types value="bus,minibus,share_taxi,aerialway"/>
    <vtype-prefix value="pt_"/>
    <verbose value="True"/>
</configuration>
-->

<routes xmlns:xsi="http://www.w3.org/2001/XMLSchema-instance" xsi:noNamespaceSchemaLocation="http://sumo.dlr.de/xsd/routes_file.xsd">
    <vType id="pt_bus" vClass="bus"/>
    <vType id="pt_tram" vClass="tram"/>
    <vType id="pt_train" vClass="rail"/>
    <vType id="pt_subway" vClass="subway"/>
    <vType id="pt_light_rail" vClass="rail_urban"/>
    <vType id="pt_monorail" vClass="rail_urban"/>
    <vType id="pt_trolleybus" vClass="bus"/>
    <vType id="pt_minibus" vClass="bus"/>
    <vType id="pt_share_taxi" vClass="taxi"/>
    <vType id="pt_aerialway" vClass="cable_car" length="2.5" width="2" personCapacity="4"/>
    <vType id="pt_ferry" vClass="ship"/>
    <route id="pt_bus_(-)_OMS:0" edges="566680388#0 566680388#1 566680388#2 566680388#3 566680388#4 586156365#1 586156365#2 586156365#3 44317039 39013518 312031900 37751255#0 37751255#1 584241795#0 584241795#1 657413479 581239050#0 581239050#1 581239050#2 555197196#0 555197196#1 555197196#2 555197196#3 555197196#4 39013523#1 39013523#2 39013523#3 39013523#4 39013523#5 39013523#6 39013523#7 70258965#0 70258965#1 70258965#2 70258965#3 170767287#0 170767287#1 170767287#2 170767287#3 77349489#1 77349489#2 77349489#3 77349489#4 77349489#5 77349489#6 1491586823 70258954#1 70258954#3 70258954#4 70258954#5 555197204 679512999-AddedOnRampEdge 679512999 679512999-AddedOffRampEdge 812684509 631795142 76834907#1 76834908 682971785 76834886#1 682971783 682971782 555197220#0 555197220#1 813012744" >
        <stop busStop="5426388558" duration="20" until="74.0"/> <!-- Nehru Nagar -->
        <stop busStop="6395693844" duration="20" until="174.0"/> <!-- Maharani Bagh -->
        <stop busStop="5121928125" duration="20" until="273.0"/> <!-- Gurudwara Bala Sahib -->
        <stop busStop="5121928128" duration="20" until="378.0"/> <!-- Sarai Kale Khan -->
        <stop busStop="5121928130" duration="20" until="442.0"/> <!-- Sarai Kale Khan ISBT -->
        <stop busStop="6396989742" duration="20" until="676.0"/> <!-- Khel Gaon -->
    </route>
    <route id="pt_bus_(-)_TMS:0" edges="28746245 1457651694 676708027 676708027-AddedOffRampEdge 1451903122 570427347 43359324 565938868#0-AddedOnRampEdge 565938868#0 677074043 1420705472#1 1420705472#2 1420705472#3 1420705472#4 1420705475 565938871#2 565938871#3 565938871#4 565938871#5 565938870 44316345 563679828 44316346" >
        <stop busStop="4819437823" duration="20" until="158.0"/> <!-- Safdarjung Hospital -->
        <stop busStop="5426388566" duration="20" until="310.0"/> <!-- South Extension -->
        <stop busStop="6112155497" duration="20" until="438.0"/> <!-- Andrews Ganj -->
    </route>
    <route id="pt_bus_(-)_TMS:1" edges="566680388#0 566680388#1 566680388#2 566680388#3 566680388#4 586156365#1 586156365#2 586156365#3 44317039 39013518 312031900 37751255#0 37751255#1 584241795#0 584241795#1 657413479 581239050#0 581239050#1 581239050#2 555197196#0 555197196#1 555197196#2 555197196#3 555197196#4 39013523#1 39013523#2 39013523#3 39013523#4 39013523#5 39013523#6 39013523#7 70258965#0 70258965#1 70258965#2 70258965#3 170767287#0 170767287#1 170767287#2 170767287#3 77349489#1 77349489#2 77349489#3 77349489#4 77349489#5 77349489#6 1491586823 70258954#1 70258954#3 70258954#4 70258954#5 555197204 679512999-AddedOnRampEdge 679512999 679512999-AddedOffRampEdge 679512998 679512997 1313465445 70258948#0 70258948#1 70258948#2" >
        <stop busStop="5426388558" duration="20" until="120.0"/> <!-- Nehru Nagar -->
        <stop busStop="5121928122" duration="20" until="253.0"/> <!-- Maharani Bagh -->
        <stop busStop="5121928125" duration="20" until="372.0"/> <!-- Gurudwara Bala Sahib -->
        <stop busStop="5121928128" duration="20" until="477.0"/> <!-- Sarai Kale Khan -->
        <stop busStop="5121928130" duration="20" until="543.0"/> <!-- Sarai Kale Khan ISBT -->
        <stop busStop="6362085192@9297931" duration="20" until="659.0"/> <!-- Indraprastha Park -->
        <stop busStop="6362085189" duration="20" until="719.0"/> <!-- Nizamuddin Road Bridge -->
    </route>
    <route id="pt_bus_166:0" edges="584241789#1 1203083884 1203083883#1 1203083883#3 176466591#1 176466591#2 176466591#3 176466591#4 176466591#5 584241784#0 584241793#0 584241793#4 1090402162 77339656#0 77339656#1 77339656#4 77339656#5 77339656#6 77339656#11 77339656#12 77339656#13 680551215 561759719#0 561759719#1 561759719#2 561759719#3 561759719#4 678397108 678397107#0 678397107#1 561759718#0 561759718#1 561759718#2 561759718#3 561759718#4 561759718#5 585446272#0 585446285#0 585446285#1 585446285#2 585446285#3 585446284#0 176492654#2 176492654#3 176492654#4 176492654#5 176492654#6 176492654#7 176492654#8 176492654#11 176492654#12 176492654#13 176492654#14 176492654#15 176492654#18 176492654#19 1187268491#0 1187268491#1 1187268491#2 1187268490 24577364#0 24577364#1 1077595194 -24577367#8 -24577367#7 -24577367#6 -24577367#4 -24577367#2 -24577367#1 -24577367#0 1077595195#1 732001894 581989172#0 581989172#1 604050032 24577379#0 24577379#1 24577379#2 582461174#0 582461174#1 582461174#2 296963058#0 296963058#1 296963058#2 296963058#3 296963058#4 296963058#5 296963058#6 296963058#7" >
        <stop busStop="938635417" duration="20" until="35.0"/> <!-- Nizamuddin Railway Station -->
        <stop busStop="6371764317" duration="20" until="160.0"/> <!-- Hazarat Nizamuddin -->
        <stop busStop="5273109722" duration="20" until="225.0"/> <!-- DPS School (near Neela Gumbad) -->
        <stop busStop="5426390776" duration="20" until="329.0"/> <!-- ISPAT Bhawan -->
        <stop busStop="5426390921" duration="20" until="417.0"/> <!-- Dayal Singh College -->
        <stop busStop="355435748" duration="20" until="493.0"/> <!-- Sujan Singh Park -->
        <stop busStop="5732544103" duration="20" until="690.0"/> <!-- Shahjahan Road UPSC -->
    </route>
    <route id="pt_bus_166:1" edges="680551206 680551212#0 680551212#1 680551212#2 296963059#0 296963059#1 296963059#2 1126646522#0 24577367#0 24577367#1 24577367#2 24577367#4 24577367#6 24577367#7 24577367#8 1126646523 783084113#1 783084113#2 732001895#0 732001905 1187268486 1187268489#0 1187268489#1 732001908#0 732001908#1 1187268492#1 80958874#0 80958874#1 80958874#2 80958874#5 80958874#6 80958874#7 80958874#8 80958874#9 80958874#10 80958874#11 80958874#12 80958874#13 80958874#14 80958874#15 730290863 24563348#0 24563348#1 24563348#3 24563348#4 24563348#7 24563348#8 24563348#9 24563348#9-AddedOffRampEdge 24563348#10 24563348#11 678397112 678397111#0 678397111#1 678397111#2 680551213 680551205 24563333#0 24563333#1 24563333#2 24563333#3 24563333#4 39013511#0 39013511#1 39013511#2 39013511#3 39013511#6 39013511#7 39013511#8 39013511#9 39013511#10 39013511#13 39013511#14 163778522#0 163778522#1 176466583" >
        <stop busStop="6854465827" duration="20" until="143.0"/> <!-- Humayun Road -->
        <stop busStop="5426389916" duration="20" until="227.0"/> <!-- Sujan Singh Park -->
        <stop busStop="7062645321" duration="20" until="333.0"/> <!-- Bharti Nagar -->
        <stop busStop="5426388555" duration="20" until="400.0"/> <!-- Dayal Singh College -->
        <stop busStop="7062680765" duration="20" until="477.0"/> <!-- Jawaharlal Nehru Stadium -->
        <stop busStop="7062680768" duration="20" until="565.0"/> <!-- ISPAT Bhawan -->
        <stop busStop="7062680766" duration="20" until="661.0"/> <!-- DPS School (near Neela Gumbad) -->
        <stop busStop="6372277578" duration="20" until="732.0"/> <!-- Dargah Hazarat Nizamuddin -->
        <stop busStop="6385492244" duration="20" until="806.0"/> <!-- Hazarat Nizamuddin -->
        <stop busStop="938635590" duration="20" until="928.0"/> <!-- Nizamuddin Railway Station -->
    </route>
    <route id="pt_bus_181A:0" edges="680551206 680551212#0 680551212#1 680551212#2 296963059#0 296963059#1 296963059#2 1126646522#0 24577367#0 24577367#1 24577367#2 24577367#4 24577367#6 24577367#7 24577367#8 1126646523 783084113#1 783084113#2 732001895#0 732001905 1187268486 1187268489#0 1187268489#1 732001908#0 732001908#1 1187268492#1 80958874#0 80958874#1 80958874#2 80958874#5 80958874#6 80958874#7 80958874#8 80958874#9 80958874#10 80958874#11 80958874#12 80958874#13 80958874#14 80958874#15 730290863 24563348#0 24563348#1 24563348#3 24563348#4 24563348#7 24563348#8 24563348#9 24563348#9-AddedOffRampEdge 24563348#10 24563348#11 678397112 678397111#0 678397111#1 678397111#2 680551213 680551205 24563333#0 24563333#1 24563333#2 24563333#3 24563333#4 39013511#0 39013511#1 39013511#2 39013511#3 39013511#6 39013511#7 39013511#8 39013511#9 39013511#10 39013511#13 39013511#14 163778522#0 163778522#1 176466583" >
        <stop busStop="6854465827" duration="20" until="124.0"/> <!-- Humayun Road -->
        <stop busStop="5426389916" duration="20" until="226.0"/> <!-- Sujan Singh Park -->
        <stop busStop="7062645321" duration="20" until="311.0"/> <!-- Bharti Nagar -->
        <stop busStop="5426388555" duration="20" until="379.0"/> <!-- Dayal Singh College -->
        <stop busStop="7062680765" duration="20" until="457.0"/> <!-- Jawaharlal Nehru Stadium -->
        <stop busStop="7062680768" duration="20" until="535.0"/> <!-- ISPAT Bhawan -->
        <stop busStop="7062680766" duration="20" until="615.0"/> <!-- DPS School (near Neela Gumbad) -->
        <stop busStop="6372277578" duration="20" until="683.0"/> <!-- Dargah Hazarat Nizamuddin -->
        <stop busStop="6385492244" duration="20" until="756.0"/> <!-- Hazarat Nizamuddin -->
        <stop busStop="938635590" duration="20" until="863.0"/> <!-- Nizamuddin Railway Station -->
    </route>
    <route id="pt_bus_181A:1" edges="584241789#1 1203083884 1203083883#1 1203083883#3 176466591#1 176466591#2 176466591#3 176466591#4 176466591#5 584241784#0 584241793#0 584241793#4 1090402162 77339656#0 77339656#1 77339656#4 77339656#5 77339656#6 77339656#11 77339656#12 77339656#13 680551215 561759719#0 561759719#1 561759719#2 561759719#3 561759719#4 678397108 678397107#0 678397107#1 561759718#0 561759718#1 561759718#2 561759718#3 561759718#4 561759718#5 585446272#0 585446285#0 585446285#1 585446285#2 585446285#3 585446284#0 176492654#2 176492654#3 176492654#4 176492654#5 176492654#6 176492654#7 176492654#8 176492654#11 176492654#12 176492654#13 176492654#14 176492654#15 176492654#18 176492654#19 1187268491#0 1187268491#1 1187268491#2 1187268490 24577364#0 24577364#1 1077595194 -24577367#8 -24577367#7 -24577367#6 24577367#6 -24577367#6 -24577367#4 -24577367#2 -24577367#1 -24577367#0 1077595195#1 732001894 581989172#0 581989172#1 604050032 24577379#0 24577379#1 24577379#2 582461174#0 582461174#1 582461174#2 296963058#0 296963058#1 296963058#2 296963058#3 296963058#4" >
        <stop busStop="938635417" duration="20" until="36.0"/> <!-- Nizamuddin Railway Station -->
        <stop busStop="6371764317" duration="20" until="190.0"/> <!-- Hazarat Nizamuddin -->
        <stop busStop="5273109722" duration="20" until="255.0"/> <!-- DPS School (near Neela Gumbad) -->
        <stop busStop="5426390776" duration="20" until="331.0"/> <!-- ISPAT Bhawan -->
        <stop busStop="5426390921" duration="20" until="455.0"/> <!-- Dayal Singh College -->
        <stop busStop="7655631102" duration="20" until="522.0"/> <!-- Bharti Nagar -->
        <stop busStop="355435748" duration="20" until="579.0"/> <!-- Sujan Singh Park -->
        <stop busStop="10221267679" duration="20" until="706.0"/> <!-- Humayun Road -->
        <stop busStop="5732544103" duration="20" until="836.0"/> <!-- Shahjahan Road UPSC -->
    </route>
    <route id="pt_bus_311A:0" edges="566680388#0 566680388#1 566680388#2 566680388#3 566680388#4 586156365#1 586156365#2 586156365#3 44317039 39013518 312031900 37751255#0 37751255#1 584241795#0 584241795#1 657413479 581239050#0 581239050#1 581239050#2 555197196#0 555197196#1 555197196#2 555197196#3 555197196#4 39013523#1 39013523#2 39013523#3 39013523#4 39013523#5 39013523#6 39013523#7 70258965#0 70258965#1 70258965#2 70258965#3 170767287#0 170767287#1 170767287#2 170767287#3 77349489#1 77349489#2 77349489#3 77349489#4 77349489#5 77349489#6 1491586823 70258954#1 70258954#3 70258954#4 70258954#5 555197204 679512999-AddedOnRampEdge 679512999 679512999-AddedOffRampEdge 812684509 631795142 76834907#1 76834908 682971785 76834886#1 682971783 682971782 555197220#0 555197220#1 813012744" >
        <stop busStop="6497625779" duration="20" until="58.0"/> <!-- PGDAV College -->
        <stop busStop="5426388558" duration="20" until="118.0"/> <!-- Nehru Nagar -->
        <stop busStop="6395693844" duration="20" until="263.0"/> <!-- Maharani Bagh -->
        <stop busStop="5121928125" duration="20" until="378.0"/> <!-- Gurudwara Bala Sahib -->
        <stop busStop="5121928128" duration="20" until="485.0"/> <!-- Sarai Kale Khan -->
        <stop busStop="5121928130" duration="20" until="549.0"/> <!-- Sarai Kale Khan ISBT -->
        <stop busStop="6396989742" duration="20" until="782.0"/> <!-- Khel Gaon -->
    </route>
    <route id="pt_bus_323:0" edges="28746245 1457651694 676708027 676708027-AddedOffRampEdge 1451903122 570427347 43359324 565938868#0-AddedOnRampEdge 565938868#0 677074043 1420705472#1 1420705472#2 1420705472#3 1420705472#4 1420705475 565938871#2 565938871#3 565938871#4 565938871#5 565938870 44316345 563679828 44316346" >
        <stop busStop="4819437823" duration="20" until="130.0"/> <!-- Safdarjung Hospital -->
        <stop busStop="5426388566" duration="20" until="279.0"/> <!-- South Extension -->
        <stop busStop="6112155497" duration="20" until="409.0"/> <!-- Andrews Ganj -->
    </route>
    <route id="pt_bus_347:0" edges="76834871 211191578 852601469#0 852601469#1 852601469#2 852601468#0 852601468#1 852601468#2" >
        <stop busStop="7242732172" duration="20" until="68.0"/> <!-- Temporary Stop -->
        <stop busStop="6497707582" duration="20" until="129.0"/> <!-- Delhi Police Apartment -->
    </route>
    <route id="pt_bus_405:0" edges="77339656#11 77339656#12 77339656#13 680551215 561759719#0 561759719#1 561759719#2 561759719#3 561759719#4 678397108 678397106 678397105 555242574-AddedOnRampEdge 555242574 77349464#0 77349464#1 77349464#1-AddedOffRampEdge 77349464#2 562479736#0 562479736#1 562479736#3 562479736#4" >
        <stop busStop="6371764317" duration="20" until="85.0"/> <!-- Hazarat Nizamuddin -->
        <stop busStop="5273109722" duration="20" until="150.0"/> <!-- DPS School (near Neela Gumbad) -->
        <stop busStop="5342182750" duration="20" until="255.0"/> <!-- None -->
        <stop busStop="5342182505" duration="20" until="318.0"/> <!-- None -->
    </route>
    <route id="pt_bus_405:1" edges="662141606#0 662141606#4 662141606#4-AddedOffRampEdge 662141606#5 662141606#6 760525681#0 760525681#1 584241794 202645529#0 202645529#1 202645529#2 1312806548 584241793#0 584241793#4 1090402162 77339656#0 77339656#1 77339656#4 77339656#5 77339656#6 77339656#11 77339656#12 77339656#13 680551215 561759719#0 561759719#1 561759719#2 561759719#3 561759719#4 678397108 678397106 678397105 555242574-AddedOnRampEdge 555242574 77349464#0 77349464#1 77349464#1-AddedOffRampEdge 77349464#2 562479736#0 562479736#1 562479736#3 562479736#4" >
        <stop busStop="6198752458" duration="20" until="82.0"/> <!-- New Friends Colony -->
        <stop busStop="910451189" duration="20" until="154.0"/> <!-- Ashram -->
        <stop busStop="6371764317" duration="20" until="369.0"/> <!-- Hazarat Nizamuddin -->
        <stop busStop="5273109722" duration="20" until="433.0"/> <!-- DPS School (near Neela Gumbad) -->
        <stop busStop="5342182750" duration="20" until="551.0"/> <!-- None -->
        <stop busStop="5342182505" duration="20" until="614.0"/> <!-- None -->
    </route>
    <route id="pt_bus_410:0" edges="-653235647#0 -38116089#12 -38116089#11 -38116089#10 -38116089#9 -38116089#8 -38116089#7 -38116090#4 -1076000734 -424007912#2 -424007912#1 -1202758360 -424014386 168275206#0 168275206#1 -424014365#6 -424014365#5 -424014365#4 -424014365#3 1306749688 -38116089#1 652047004 583620105#1 583620105#2 583620105#3 583620105#4 583620105#5 168381546#0 168381546#1 583910216 579507806 583620104#0 -1187796048 -424014401#0 -424014444#4 -424014444#3 -424014444#2 -424014444#1 -424014444#0 38116092#2 1183845653#0 1183845653#1 -168275173#2 -168275173#0 -38116091#1 -38116091#0 -677418645 -677418649 -38116094#9 -38116094#8 -38116094#7 -38116094#6 -38116094#5 -38116094#4 -38116094#3 -38116094#2 -660172544#8 -660172544#7 -660172544#6 -660172544#4 -660172544#3 -660172544#2 -660172544#1 -660172544#0 -1076257529#2 621256677 621256674#1 621256672 621256666#0 621256666#0-AddedOffRampEdge 621256668#0 768102459#2 -186810182#3 -186810182#2 -186810182#1 -186810182#0 205080608#1 205080608#2 205080608#3 205080608#4 205080608#5 -169421699#0 -169421731 1057070263 28153848#0 28153848#1 28153848#2 28153848#3 28153848#4 28153848#5 28153848#6 28153848#7 28153848#8 28153848#9 28153848#10 28153848#11 28153848#12 1186664897#0 77339655#8 77339655#9 730237457#0 730237457#3 1451897494-AddedOnRampEdge 1451897494 1451897494-AddedOffRampEdge 77015779#1 715377036-AddedOnRampEdge 715377036 77349488#1 77349488#2 77349488#3 77349488#4 77349488#5 584241782 37751254#0 37751254#1 37751254#2 760525680 566680381-AddedOnRampEdge 566680381 1313030094 39013521 1313030095 586156360#1 586156360#2 586156360#3 566009660#0 733576742 566680388#4 586156365#1 586156365#2 586156365#3 44317039 39013518 312031900 37751255#0 37751255#1 584241795#0 584241795#1 584241794 202645529#0 202645529#1 202645529#2 1312806548 584241793#0 584241793#4 1090402162 77339656#0 77339656#1 77339656#4 77339656#5 77339656#6 77339656#11 77339656#12 77339656#13 680551215 680551214 680551213 1313158398 570859682#0 570859682#1 570859682#2 570859682#3 570859682#3-AddedOffRampEdge 570859682#4 570859682#6 77349485#1 77349485#2 77349485#3 77349485#4 680551212#0 680551212#1 680551212#2 582461172" >
        <stop busStop="-6122143946" duration="20" until="35.0"/> <!-- Jal Vihar Terminal -->
        <stop busStop="6203988021" duration="20" until="230.0"/> <!-- Lajpat Nagar (DJB) -->
        <stop busStop="5426388558" duration="20" until="821.0"/> <!-- Nehru Nagar -->
        <stop busStop="5584870725" duration="20" until="904.0"/> <!-- Ashram -->
        <stop busStop="6371764317" duration="20" until="1049.0"/> <!-- Hazarat Nizamuddin -->
        <stop busStop="6077096067" duration="20" until="1158.0"/> <!-- Golf Club -->
        <stop busStop="6385537594" duration="20" until="1242.0"/> <!-- Bapa Nagar -->
    </route>
    <route id="pt_bus_410:1" edges="44831985#0 44831985#1 44831985#2 44831985#3 1187268470#0 1187268470#1 1187268470#3 1199333276 1313161443 1199333278 77349527 77349521 697289105-AddedOnRampEdge 697289105 24563333#0 24563333#1 24563333#2 24563333#3 24563333#4 39013511#0 39013511#1 39013511#2 39013511#3 39013511#6 39013511#7 39013511#8 39013511#9 39013511#10 39013511#13 39013511#14 39013511#15 39013511#16 77339658 77339655#0 77339655#1 77339655#3 77339655#4 77339655#8 77339655#9 730237457#0 730237457#3 1451897494-AddedOnRampEdge 1451897494 1451897494-AddedOffRampEdge 77015779#1 715377036-AddedOnRampEdge 715377036 77349488#1 77349488#2 77349488#3 77349488#4 77349488#5 584241782 37751254#0 37751254#1 37751254#2 760525680 566680381-AddedOnRampEdge 566680381 1313030094 39013521 1313030095 586156360#1 586156360#2 586156360#3 566009660#0 733576742 566680388#4 586156365#1 586156365#2 586156365#3 44317039 39013518 312031900 37751255#0 37751255#1 584241795#0 584241795#1 584241794 202645529#0 202645529#1 202645529#2 1312806548 584241793#0 584241793#4 1090402158#0 1090402158#1 1090402158#2 1090402158#3 1090402158#4 1090402158#6 1090402158#8 1090402158#9 1090402158#10 1090402158#11 1090402158#12 1090402158#13 1090402165 1090402167 1090402166 312031903#0 312031903#1 312031903#2 312031903#3 312031903#4 1212071851#3 1212071851#4 1212071851#5 186810178#0 186810178#1 1312784813 169421728 202800232 1312784809 1312784810 202800230#0 202800230#1 -652550331 1149879785 1183838119 652550336#0 652550336#2 652550336#3 652550336#5 652550336#6 652550336#9 652550336#10 652550336#11 652550336#12 652550336#13 652550336#14 652550336#15 652550336#17 652550336#19 652550336#20 652550336#21 652550336#22 652550336#23 652550336#24 652550336#26 652550336#27 38116092#0 38116092#1 424014444#0 424014444#1 424014444#2 424014444#3 424014444#4 424014444#5 583620104#3 583620104#4 583620104#5 583620104#6 583620104#7 38116089#1 -1306749688 424014365#3 424014365#4 424014365#5 424014365#6 -168275206#1 -168275206#0 424014386 1202758360 424007912#1 424007912#2 1076000734 38116090#4 38116089#7 38116089#8 38116089#9 38116089#10 38116089#11 38116089#12 38116089#13" >
        <stop busStop="6385537600" duration="20" until="72.0"/> <!-- Bapa Nagar -->
        <stop busStop="6372277579" duration="20" until="187.0"/> <!-- Golf Club -->
        <stop busStop="6372277578" duration="20" until="293.0"/> <!-- Dargah Hazarat Nizamuddin -->
        <stop busStop="6385492244" duration="20" until="350.0"/> <!-- Hazarat Nizamuddin -->
        <stop busStop="5584872921" duration="20" until="505.0"/> <!-- Ashram -->
        <stop busStop="5426389543" duration="20" until="621.0"/> <!-- Nehru Nagar -->
        <stop busStop="5430723253" duration="20" until="673.0"/> <!-- Sri Niwas Puri -->
        <stop busStop="6372277576" duration="20" until="1186.0"/> <!-- Lajpat Nagar (DJB) -->
        <stop busStop="6122143946" duration="20" until="1390.0"/> <!-- Jal Vihar Terminal -->
    </route>
    <route id="pt_bus_410A:0" edges="44831985#0 44831985#1 44831985#2 44831985#3 1187268470#0 1187268470#1 1187268470#3 1199333276 1313161443 1199333278 77349527 77349521 697289105-AddedOnRampEdge 697289105 24563333#0 24563333#1 24563333#2 24563333#3 24563333#4 39013511#0 39013511#1 39013511#2 39013511#3 39013511#6 39013511#7 39013511#8 39013511#9 39013511#10 39013511#13 39013511#14 39013511#15 39013511#16 77339658 77339655#0 77339655#1 77339655#3 77339655#4 77339655#8 77339655#9 730237457#0 730237457#3 1451897494-AddedOnRampEdge 1451897494 1451897494-AddedOffRampEdge 77015779#1 715377036-AddedOnRampEdge 715377036 77349488#1 77349488#2 77349488#3 77349488#4 77349488#5 584241782 37751254#0 37751254#1 37751254#2 760525680 566680381-AddedOnRampEdge 566680381 1313030094 39013521 1313030095 586156360#1 586156360#2 586156360#3 566009660#0 733576742 566680388#4 586156365#1 586156365#2 586156365#3 44317039 39013518 312031900 37751255#0 37751255#1 584241795#0 584241795#1 584241794 202645529#0 202645529#1 202645529#2 1312806548 584241793#0 584241793#4 1090402158#0 1090402158#1 1090402158#2 1090402158#3 1090402158#4 1090402158#6 1090402158#8 1090402158#9 1090402158#10 1090402158#11 1090402158#12 1090402158#13 1090402165 1090402167 1090402166 312031903#0 312031903#1 312031903#2 312031903#3 312031903#4 1212071851#3 1212071851#4 1212071851#5 186810178#0 186810178#1 1312784813 169421728 202800232 1312784809 1312784810 202800230#0 202800230#1 -652550331 1149879785 1183838119 652550336#0 652550336#2 652550336#3 652550336#5 652550336#6 652550336#9 652550336#10 652550336#11 652550336#12 652550336#13 652550336#14 652550336#15 652550336#17 652550336#19 652550336#20 652550336#21 652550336#22 652550336#23 652550336#24 652550336#26 652550336#27 38116092#0 38116092#1 424014444#0 424014444#1 424014444#2 424014444#3 424014444#4 424014444#5 583620104#3 583620104#4 583620104#5 583620104#6 583620104#7 38116089#1 -1306749688 424014365#3 424014365#4 424014365#5 424014365#6 -168275206#1 -168275206#0 424014386 1202758360 424007912#1 424007912#2 1076000734 38116090#4 38116089#7 38116089#8 38116089#9 38116089#10 38116089#11 38116089#12 38116089#13" >
        <stop busStop="6385537600" duration="20" until="72.0"/> <!-- Bapa Nagar -->
        <stop busStop="6372277579" duration="20" until="142.0"/> <!-- Golf Club -->
        <stop busStop="6372277578" duration="20" until="253.0"/> <!-- Dargah Hazarat Nizamuddin -->
        <stop busStop="6385492244" duration="20" until="308.0"/> <!-- Hazarat Nizamuddin -->
        <stop busStop="5584872921" duration="20" until="474.0"/> <!-- Ashram -->
        <stop busStop="5426389543" duration="20" until="603.0"/> <!-- Nehru Nagar -->
        <stop busStop="5430723253" duration="20" until="657.0"/> <!-- Sri Niwas Puri -->
        <stop busStop="6372277576" duration="20" until="1173.0"/> <!-- Lajpat Nagar (DJB) -->
        <stop busStop="6122143946" duration="20" until="1375.0"/> <!-- Jal Vihar Terminal -->
    </route>
    <route id="pt_bus_410A:1" edges="-653235647#0 -38116089#12 -38116089#11 -38116089#10 -38116089#9 -38116089#8 -38116089#7 -38116090#4 -1076000734 -424007912#2 -424007912#1 -1202758360 -424014386 168275206#0 168275206#1 -424014365#6 -424014365#5 -424014365#4 -424014365#3 1306749688 -38116089#1 652047004 583620105#1 583620105#2 583620105#3 583620105#4 583620105#5 168381546#0 168381546#1 583910216 579507806 583620104#0 -1187796048 -424014401#0 -424014444#4 -424014444#3 -424014444#2 -424014444#1 -424014444#0 38116092#2 1183845653#0 1183845653#1 -168275173#2 -168275173#0 -38116091#1 -38116091#0 -677418645 -677418649 -38116094#9 -38116094#8 -38116094#7 -38116094#6 -38116094#5 -38116094#4 -38116094#3 -38116094#2 -660172544#8 -660172544#7 -660172544#6 -660172544#4 -660172544#3 -660172544#2 -660172544#1 -660172544#0 -1076257529#2 621256677 621256674#1 621256672 621256666#0 621256666#0-AddedOffRampEdge 621256668#0 768102459#2 -186810182#3 -186810182#2 -186810182#1 -186810182#0 205080608#1 205080608#2 205080608#3 205080608#4 205080608#5 -169421699#0 -169421731 1057070263 28153848#0 28153848#1 28153848#2 28153848#3 28153848#4 28153848#5 28153848#6 28153848#7 28153848#8 28153848#9 28153848#10 28153848#11 28153848#12 1186664897#0 77339655#8 77339655#9 730237457#0 730237457#3 1451897494-AddedOnRampEdge 1451897494 1451897494-AddedOffRampEdge 77015779#1 715377036-AddedOnRampEdge 715377036 77349488#1 77349488#2 77349488#3 77349488#4 77349488#5 584241782 37751254#0 37751254#1 37751254#2 760525680 566680381-AddedOnRampEdge 566680381 1313030094 39013521 1313030095 586156360#1 586156360#2 586156360#3 566009660#0 733576742 566680388#4 586156365#1 586156365#2 586156365#3 44317039 39013518 312031900 37751255#0 37751255#1 584241795#0 584241795#1 584241794 202645529#0 202645529#1 202645529#2 1312806548 584241793#0 584241793#4 1090402162 77339656#0 77339656#1 77339656#4 77339656#5 77339656#6 77339656#11 77339656#12 77339656#13 680551215 680551214 680551213 1313158398 570859682#0 570859682#1 570859682#2 570859682#3 570859682#3-AddedOffRampEdge 570859682#4 570859682#6 77349485#1 77349485#2 77349485#3 77349485#4 680551212#0 680551212#1 680551212#2 582461172" >
        <stop busStop="-6122143946" duration="20" until="34.0"/> <!-- Jal Vihar Terminal -->
        <stop busStop="6203988021" duration="20" until="229.0"/> <!-- Lajpat Nagar (DJB) -->
        <stop busStop="5426388558" duration="20" until="832.0"/> <!-- Nehru Nagar -->
        <stop busStop="5584870725" duration="20" until="912.0"/> <!-- Ashram -->
        <stop busStop="6371764317" duration="20" until="1134.0"/> <!-- Hazarat Nizamuddin -->
        <stop busStop="6077096067" duration="20" until="1242.0"/> <!-- Golf Club -->
        <stop busStop="6385537594" duration="20" until="1312.0"/> <!-- Bapa Nagar -->
    </route>
    <route id="pt_bus_413:0" edges="584241789#1 1203083884 1203083883#1 1203083883#3 176466591#1 176466591#2 176466591#3 176466591#4 176466591#5 584241787 1451897494-AddedOnRampEdge 1451897494 1451897494-AddedOffRampEdge 77015779#1 715377036-AddedOnRampEdge 715377036 77349488#1 77349488#2 77349488#3 77349488#4 77349488#5 584241782 37751254#0 37751254#1 37751254#2 760525680 566680381-AddedOnRampEdge 566680381 1313030094 39013521 1313030095 566680382 1313027075" >
        <stop busStop="938635417" duration="20" until="36.0"/> <!-- Nizamuddin Railway Station -->
        <stop busStop="5584872921" duration="20" until="162.0"/> <!-- Ashram -->
        <stop busStop="5585958328" duration="20" until="255.0"/> <!-- Nehru Nagar -->
    </route>