<?xml version="1.0" encoding="UTF-8"?>

<!-- generated on 2026-07-12T00:34:56.763482+05:30 by Eclipse SUMO netconvert 1.27.1
<netconvertConfiguration xmlns:xsi="http://www.w3.org/2001/XMLSchema-instance" xsi:noNamespaceSchemaLocation="http://sumo.dlr.de/xsd/netconvertConfiguration.xsd">

    <input>
        <type-files value="${SUMO_HOME}\data\typemap\osmNetconvert.typ.xml,${SUMO_HOME}\data\typemap\osmNetconvertAerialway.typ.xml"/>
        <osm-files value="osm_bbox.osm.xml.gz"/>
    </input>

    <output>
        <output-file value="osm.net.xml.gz"/>
        <output.street-names value="true"/>
        <output.original-names value="true"/>
        <ptstop-output value="osm_stops.add.xml"/>
        <ptline-output value="osm_ptlines.xml"/>
        <ptline-clean-up value="true"/>
    </output>

    <projection>
        <proj.utm value="true"/>
    </projection>

    <processing>
        <geometry.remove value="true"/>
        <lefthand value="true"/>
    </processing>

    <tls_building>
        <tls.discard-simple value="true"/>
        <tls.join value="true"/>
        <tls.guess-signals value="true"/>
        <tls.default-type value="actuated"/>
    </tls_building>

    <ramp_guessing>
        <ramps.guess value="true"/>
    </ramp_guessing>

    <junctions>
        <junctions.join value="true"/>
    </junctions>

    <railway>
        <railway.topology.repair value="true"/>
    </railway>

</netconvertConfiguration>
-->

<additional xmlns:xsi="http://www.w3.org/2001/XMLSchema-instance" xsi:noNamespaceSchemaLocation="http://sumo.dlr.de/xsd/additional_file.xsd">
    <trainStop id="-5737166761" name="Shivaji Stadium" lane="-604707698#1_0" startPos="1847.06" endPos="2047.06" friendlyPos="true" lines="AEx">
        <access lane="-24583488#1_0" pos="137.86" length="235.10" friendlyPos="1"/>
        <access lane="-24583489#0_0" pos="134.01" length="97.63" friendlyPos="1"/>
        <access lane="24583332#0_0" pos="599.85" length="14.32" friendlyPos="1"/>
        <access lane="24583332#1_0" pos="0.00" length="115.89" friendlyPos="1"/>
        <access lane="24583489#0_0" pos="10.58" length="92.77" friendlyPos="1"/>
    </trainStop>
    <trainStop id="-5737167170" name="New Delhi Airport Express Terminal" lane="-604707698#1_0" startPos="0.00" endPos="200.00" friendlyPos="true" lines="AEx"/>
    <busStop id="-9182102064" name="YMCA" lane="-24583487#6_0" startPos="0.00" endPos="15.00" friendlyPos="true" lines="281 378 349"/>
    <trainStop id="1665772897" name="Central Secretariat" lane="188245893_0" startPos="8552.85" endPos="8752.85" friendlyPos="true" lines="6">
        <access lane="-371342944#1_0" pos="16.35" length="3.38" friendlyPos="1"/>
        <access lane="1493050750#1_0" pos="0.00" length="3.57" friendlyPos="1"/>
        <access lane="1493050759_0" pos="17.66" length="10.60" friendlyPos="1"/>
        <access lane="371342944#1_0" pos="0.00" length="6.77" friendlyPos="1"/>
        <access lane="760536610#1_0" pos="0.00" length="5.18" friendlyPos="1"/>
    </trainStop>
    <trainStop id="1988668271" name="Janpath" lane="188245893_0" startPos="7285.99" endPos="7485.99" friendlyPos="true" lines="6">
        <access lane="-705744781_0" pos="3.38" length="10.80" friendlyPos="1"/>
        <access lane="24577096#7_0" pos="57.66" length="30.16" friendlyPos="1"/>
        <access lane="596373338#6_0" pos="14.33" length="18.26" friendlyPos="1"/>
        <access lane="596373338#7_0" pos="0.90" length="9.73" friendlyPos="1"/>
        <access lane="705744781_0" pos="20.88" length="6.00" friendlyPos="1"/>
    </trainStop>
    <trainStop id="1988668281" name="Jama Masjid" lane="188245893_0" startPos="2319.79" endPos="2519.79" friendlyPos="true" lines="6"/>
    <trainStop id="2622338438" name="Mandi House" lane="188245893_0" startPos="5622.74" endPos="5822.74" friendlyPos="true" lines="6"/>
    <trainStop id="2722924227" name="Lal Quila" lane="188245893_0" startPos="1461.17" endPos="1661.17" friendlyPos="true" lines="6"/>
    <trainStop id="2837165876" name="Delhi Gate" lane="188245893_0" startPos="3584.47" endPos="3784.47" friendlyPos="true" lines="6"/>
    <trainStop id="3580369626" name="ITO" lane="188245893_0" startPos="4813.25" endPos="5013.25" friendlyPos="true" lines="6"/>
    <busStop id="4156355793" name="Kendriya Terminal" lane="24584398#4_0" startPos="3.26" endPos="18.26" friendlyPos="true" lines="100"/>
    <busStop id="4440796915" name="Kasturba Gandhi Marg Crossing" lane="998790358#2_0" startPos="6.48" endPos="21.48" friendlyPos="true" lines="391"/>
    <busStop id="5338584905" name="Doctor Ram Manohar Lohia Hospital" lane="48964552#7_0" startPos="18.23" endPos="33.23" friendlyPos="true" lines="100"/>
    <busStop id="5338584991" name="New Delhi Post Office" lane="48964552#1_0" startPos="0.00" endPos="15.00" friendlyPos="true" lines="100"/>
    <busStop id="5345535254" name="Firoz Shah Road" lane="998790356#3_0" startPos="0.00" endPos="15.00" friendlyPos="true" lines="706A 391 270"/>
    <busStop id="5346174186" name="New Delhi Post Office" lane="24584377#8_0" startPos="43.54" endPos="58.54" friendlyPos="true" lines="281 890 680 480 408E 391 390 378 370 349 580 540"/>
    <busStop id="5432714822" lane="995793692#2_0" startPos="0.00" endPos="15.00" friendlyPos="true" lines="349 378"/>
    <busStop id="5432720712" name="Tolstoy Marg" lane="563791811#3_0" startPos="24.30" endPos="39.30" friendlyPos="true" lines="378 349"/>
    <busStop id="5483331671" name="South Avenue" lane="708474897#1_0" startPos="488.16" endPos="503.16" friendlyPos="true" lines="680"/>
    <busStop id="5483331673" name="Gurudwara Bangla Sahib" lane="994825989_0" startPos="40.18" endPos="55.18" friendlyPos="true" lines="281 890 391 349"/>
    <busStop id="5483331673@7921460" name="Gurudwara Bangla Sahib" lane="997761553_0" startPos="39.78" endPos="54.78" friendlyPos="true" lines="378 540"/>
    <busStop id="5483332064" name="Kendriya Terminal Church Road" lane="581245363#4_0" startPos="68.82" endPos="83.82" friendlyPos="true" lines="281 282 706A 890 680 480 408E 391 390 378 370 349 270 100 580 540 944 810"/>
    <busStop id="5483954443" name="Krishi Bhawan" lane="760536610#1_0" startPos="100.60" endPos="115.60" friendlyPos="true" lines="890 540"/>
    <busStop id="5483954444" name="Kendriya Terminal" lane="570413587#1_0" startPos="73.51" endPos="88.51" friendlyPos="true" lines="580 540 480 944 810 390 349 378"/>
    <busStop id="5484083823" name="Udyog Bhawan" lane="1307222667#1_0" startPos="100.24" endPos="115.24" friendlyPos="true" lines="890 540"/>
    <trainStop id="554257793" name="Dilli Haat - INA" lane="343626950#0_0" startPos="723.08" endPos="923.08" friendlyPos="true" lines="2"/>
    <trainStop id="554257797" name="Lok Kalyan Marg" lane="343626950#0_0" startPos="3355.88" endPos="3555.88" friendlyPos="true" lines="2"/>
    <trainStop id="554257800" name="Seva Teerth" lane="343626950#0_0" startPos="4706.55" endPos="4906.55" friendlyPos="true" lines="2">
        <access lane="1148133605_0" pos="0.00" length="83.89" friendlyPos="1"/>
        <access lane="44352050#0_0" pos="521.55" length="1.40" friendlyPos="1"/>
        <access lane="44352050#1_0" pos="0.00" length="87.06" friendlyPos="1"/>
        <access lane="722443696#0_0" pos="13.13" length="87.58" friendlyPos="1"/>
        <access lane="722443696#1_0" pos="53.41" length="15.04" friendlyPos="1"/>
    </trainStop>
    <trainStop id="554257805" name="Jor Bagh" lane="343626950#0_0" startPos="2144.30" endPos="2344.30" friendlyPos="true" lines="2"/>
    <trainStop id="554257818" name="Patel Chowk" lane="343626950#1_0" startPos="283.87" endPos="483.87" friendlyPos="true" lines="2">
        <access lane="-1122228217#0_0" pos="0.00" length="8.17" friendlyPos="1"/>
        <access lane="-1122228217#1_0" pos="192.76" length="10.00" friendlyPos="1"/>
        <access lane="-1122228218_0" pos="0.00" length="15.26" friendlyPos="1"/>
        <access lane="1122228217#0_0" pos="12.59" length="12.04" friendlyPos="1"/>
        <access lane="1122228217#1_0" pos="0.00" length="13.36" friendlyPos="1"/>
    </trainStop>
    <trainStop id="554257827" name="Mandi House" lane="52082767_0" startPos="90.81" endPos="290.81" friendlyPos="true" lines="3"/>
    <trainStop id="554257839" name="Barakhambha Road" lane="52082767_0" startPos="1121.55" endPos="1321.55" friendlyPos="true" lines="3">
        <access lane="1121186672#0_0" pos="43.27" length="285.07" friendlyPos="1"/>
        <access lane="1290403893#5_0" pos="338.91" length="18.64" friendlyPos="1"/>
        <access lane="523568284#0_0" pos="0.00" length="255.44" friendlyPos="1"/>
        <access lane="563679820#6_0" pos="198.80" length="254.73" friendlyPos="1"/>
        <access lane="563974735#0_0" pos="0.00" length="277.62" friendlyPos="1"/>
    </trainStop>
    <busStop id="5561975423" name="Kendriya Terminal" lane="581245363#4_0" startPos="77.44" endPos="92.44" friendlyPos="true" lines="281 282 706A 890 680 480 408E 391 390 378 370 349 270 100 580 540 944 810"/>
    <busStop id="5587022726" name="Firoz Shah Road" lane="998790356#3_0" startPos="0.00" endPos="15.00" friendlyPos="true" lines="391"/>
    <busStop id="5587022727" name="Kasturba Gandhi Marg Crossing" lane="998790354#4_0" startPos="45.02" endPos="60.02" friendlyPos="true" lines="391"/>
    <trainStop id="562620239" name="Jawaharlal Nehru Stadium" lane="188245893_0" startPos="12469.73" endPos="12669.73" friendlyPos="true" lines="6"/>
    <trainStop id="562620241" name="Jangpura" lane="188245893_0" startPos="13172.76" endPos="13372.76" friendlyPos="true" lines="6"/>
    <busStop id="5637100894" name="Patel Chowk" lane="717907807#3_0" startPos="58.94" endPos="73.94" friendlyPos="true" lines="100 349 378"/>
    <busStop id="5637101391" name="Gurudwara Bangla Sahib" lane="717907807#3_0" startPos="209.54" endPos="224.54" friendlyPos="true" lines="100 349 378"/>
    <trainStop id="5737167205" name="Mandi House" lane="604707732_0" startPos="1990.11" endPos="2190.11" friendlyPos="true" lines="3"/>
    <trainStop id="5737167209" name="Barakhambha Road" lane="604707732_0" startPos="961.73" endPos="1161.73" friendlyPos="true" lines="3">
        <access lane="1121186672#0_0" pos="43.27" length="287.01" friendlyPos="1"/>
        <access lane="1290403893#5_0" pos="338.91" length="25.52" friendlyPos="1"/>
        <access lane="523568284#0_0" pos="0.00" length="255.43" friendlyPos="1"/>
        <access lane="563679820#6_0" pos="198.80" length="255.12" friendlyPos="1"/>
        <access lane="563974735#0_0" pos="0.00" length="279.34" friendlyPos="1"/>
    </trainStop>
    <trainStop id="5777602002" name="Patel Chowk" lane="610022433#4_0" startPos="36.86" endPos="236.86" friendlyPos="true" lines="2">
        <access lane="-1122228217#0_0" pos="0.00" length="6.21" friendlyPos="1"/>
        <access lane="-1122228218_0" pos="0.00" length="6.34" friendlyPos="1"/>
        <access lane="1122228217#0_0" pos="12.59" length="5.60" friendlyPos="1"/>
        <access lane="1122228217#1_0" pos="0.00" length="8.86" friendlyPos="1"/>
        <access lane="1122228218_0" pos="156.97" length="7.52" friendlyPos="1"/>
    </trainStop>
    <trainStop id="5777602007" name="Central Secretariat" lane="610022433#1_0" startPos="0.00" endPos="200.00" friendlyPos="true" lines="2">
        <access lane="-371342944#1_0" pos="16.35" length="23.49" friendlyPos="1"/>
        <access lane="1493050750#1_0" pos="0.00" length="19.90" friendlyPos="1"/>
        <access lane="1493050759_0" pos="17.66" length="22.32" friendlyPos="1"/>
        <access lane="760536610#1_0" pos="0.00" length="24.37" friendlyPos="1"/>
        <access lane="760536611#2_0" pos="42.17" length="2.09" friendlyPos="1"/>
    </trainStop>
    <trainStop id="5777602008" name="Seva Teerth" lane="610022433#0_0" startPos="4705.82" endPos="4905.82" friendlyPos="true" lines="2">
        <access lane="1148133605_0" pos="0.00" length="84.67" friendlyPos="1"/>
        <access lane="44352050#0_0" pos="521.78" length="10.33" friendlyPos="1"/>
        <access lane="44352050#1_0" pos="0.00" length="87.27" friendlyPos="1"/>
        <access lane="722443696#0_0" pos="13.13" length="89.15" friendlyPos="1"/>
        <access lane="722443696#1_0" pos="53.30" length="23.98" friendlyPos="1"/>
    </trainStop>
    <trainStop id="5777602010" name="Lok Kalyan Marg" lane="610022433#0_0" startPos="3353.73" endPos="3553.73" friendlyPos="true" lines="2"/>
    <trainStop id="5777602013" name="Jor Bagh" lane="610022433#0_0" startPos="2143.69" endPos="2343.69" friendlyPos="true" lines="2"/>
    <trainStop id="5777602018" name="Dilli Haat - INA" lane="610022433#0_0" startPos="722.71" endPos="922.71" friendlyPos="true" lines="2"/>
    <trainStop id="5777602034" name="A.I.I.M.S." lane="610022433#0_0" startPos="0.00" endPos="200.00" friendlyPos="true" lines="2"/>
    <trainStop id="5777629158" name="Jawaharlal Nehru Stadium" lane="610024711_0" startPos="701.23" endPos="901.23" friendlyPos="true" lines="6"/>
    <trainStop id="5777629164" name="Khan Market" lane="610024711_0" startPos="2344.11" endPos="2544.11" friendlyPos="true" lines="6"/>
    <trainStop id="5777629169" name="Central Secretariat" lane="610024711_0" startPos="4620.67" endPos="4820.67" friendlyPos="true" lines="6">
        <access lane="-371342944#1_0" pos="16.35" length="9.85" friendlyPos="1"/>
        <access lane="1493050750#1_0" pos="0.00" length="6.90" friendlyPos="1"/>
        <access lane="1493050759_0" pos="17.66" length="12.13" friendlyPos="1"/>
        <access lane="371342944#1_0" pos="0.00" length="11.57" friendlyPos="1"/>
        <access lane="760536610#1_0" pos="0.00" length="11.02" friendlyPos="1"/>
    </trainStop>
    <trainStop id="5777629177" name="Janpath" lane="610024711_0" startPos="5887.27" endPos="6087.27" friendlyPos="true" lines="6">
        <access lane="-705744781_0" pos="0.00" length="11.28" friendlyPos="1"/>
        <access lane="24577096#7_0" pos="57.64" length="21.84" friendlyPos="1"/>
        <access lane="596373338#6_0" pos="14.33" length="15.51" friendlyPos="1"/>
        <access lane="596373338#7_0" pos="0.90" length="1.41" friendlyPos="1"/>
        <access lane="705744781_0" pos="24.26" length="6.82" friendlyPos="1"/>
    </trainStop>
    <trainStop id="5777629183" name="Mandi House" lane="610024711_0" startPos="7559.72" endPos="7759.72" friendlyPos="true" lines="6"/>
    <trainStop id="5777629192" name="ITO" lane="610024711_0" startPos="8360.52" endPos="8560.52" friendlyPos="true" lines="6"/>
    <trainStop id="5777629197" name="Delhi Gate" lane="610024711_0" startPos="9587.46" endPos="9787.46" friendlyPos="true" lines="6"/>
    <trainStop id="5777629203" name="Jama Masjid" lane="610024711_0" startPos="10850.48" endPos="11050.48" friendlyPos="true" lines="6"/>
    <trainStop id="5777629829" name="Jangpura" lane="610024711_0" startPos="0.00" endPos="200.00" friendlyPos="true" lines="6"/>
    <busStop id="6225478959" name="New Delhi Post Office" lane="24584375#1_0" startPos="65.98" endPos="80.98" friendlyPos="true" lines="349 378"/>
    <busStop id="6225479426" name="NDPO" lane="24584375#5_0" startPos="6.61" endPos="21.61" friendlyPos="true" lines="349 378"/>
    <busStop id="6225479657" lane="24584375#11_0" startPos="1.13" endPos="16.13" friendlyPos="true" lines="349 378"/>
    <busStop id="6225479669" name="Doctor Ram Manohar Lohia Hospital" lane="665150699#0_0" startPos="131.92" endPos="146.92" friendlyPos="true" lines="100"/>
    <busStop id="6225479821" name="Gurudwara Rakab Ganj" lane="24584380#0_0" startPos="53.93" endPos="68.93" friendlyPos="true" lines="100"/>
    <busStop id="6225479822" name="Talkatora Road" lane="24584380#8_0" startPos="38.43" endPos="53.43" friendlyPos="true" lines="100"/>
    <busStop id="6225480474" name="Talkatora Road" lane="24584378#2_0" startPos="70.91" endPos="85.91" friendlyPos="true" lines="100"/>
    <busStop id="6225482595" name="Gurudwara Rakab Ganj" lane="24584378#10_0" startPos="18.55" endPos="33.55" friendlyPos="true" lines="100"/>
    <busStop id="6225764792" name="Kendriya Terminal" lane="24584377#0_0" startPos="53.70" endPos="68.70" friendlyPos="true" lines="680"/>
    <busStop id="6385537605" name="Patel Chowk" lane="994825990#0_0" startPos="41.72" endPos="56.72" friendlyPos="true" lines="890 391"/>
    <busStop id="6404197725" name="Police Station Parliament Street" lane="996679779#5_0" startPos="38.93" endPos="53.93" friendlyPos="true" lines="100 349 378"/>
    <trainStop id="6539894853" name="Rajiv Chowk" lane="604707732_0" startPos="344.37" endPos="544.37" friendlyPos="true" lines="3"/>
    <trainStop id="6547772096" name="New Delhi Airport Express Terminal" lane="188216912#1_0" startPos="2062.03" endPos="2262.03" friendlyPos="true" lines="AEx"/>
    <trainStop id="6547772100" name="Kashmere Gate" lane="188245893_0" startPos="0.00" endPos="200.00" friendlyPos="true" lines="6"/>
    <trainStop id="6547772108" name="Central Secretariat" lane="343626950#0_0" startPos="5413.86" endPos="5613.86" friendlyPos="true" lines="2">
        <access lane="-371342944#1_0" pos="16.35" length="14.56" friendlyPos="1"/>
        <access lane="1493050750#1_0" pos="0.00" length="11.22" friendlyPos="1"/>
        <access lane="1493050759_0" pos="17.66" length="15.03" friendlyPos="1"/>
        <access lane="760536610#1_0" pos="0.00" length="15.57" friendlyPos="1"/>
        <access lane="760536611#2_0" pos="42.06" length="11.03" friendlyPos="1"/>
    </trainStop>
    <trainStop id="7018301884" name="A.I.I.M.S." lane="343626950#0_0" startPos="0.00" endPos="200.00" friendlyPos="true" lines="2"/>
    <busStop id="7116238187" name="Kendriya Terminal" lane="714990513#3_0" startPos="25.72" endPos="40.72" friendlyPos="true" lines="281 282 706A 890 408E 391 378 370 349 100"/>
    <busStop id="7267338505" name="Krishi Bhawan" lane="998790362#1_0" startPos="0.00" endPos="12.21" friendlyPos="true" lines="391"/>
    <busStop id="9214974876" name="Jantar Mantar" lane="74851428#2_0" startPos="21.80" endPos="36.80" friendlyPos="true" lines="378 349"/>
    <busStop id="9214974884" name="Janpath" lane="563974730#1_0" startPos="0.00" endPos="15.00" friendlyPos="true" lines="349"/>
    <trainStop id="927873481" name="Khan Market" lane="188245893_0" startPos="10823.78" endPos="11023.78" friendlyPos="true" lines="6"/>
    <trainStop id="939091076" name="Rajiv Chowk" lane="52082767_0" startPos="1738.46" endPos="1938.46" friendlyPos="true" lines="3"/>
    <busStop id="971653361" name="Baroda House" lane="116046169#3_0" startPos="0.00" endPos="15.00" friendlyPos="true"/>
    <trainStop id="9938725207" name="Shivaji Stadium" lane="188216912#1_0" startPos="217.44" endPos="417.44" friendlyPos="true" lines="AEx">
        <access lane="-24583488#1_0" pos="139.97" length="240.69" friendlyPos="1"/>
        <access lane="-24583489#0_0" pos="134.01" length="98.47" friendlyPos="1"/>
        <access lane="24583332#0_0" pos="599.87" length="7.90" friendlyPos="1"/>
        <access lane="24583332#1_0" pos="0.00" length="115.24" friendlyPos="1"/>
        <access lane="24583489#0_0" pos="10.58" length="93.59" friendlyPos="1"/>
    </trainStop>
</additional>
