<?xml version='1.0' encoding='utf-8'?>
<routes>
    <trip id="low_00000" depart="7.17" from="711421334#3" to="537797267#3" departLane="best" departSpeed="max" />
    <trip id="low_00001" depart="14.01" from="24563448#3" to="537797267#3" departLane="best" departSpeed="max" />
    <trip id="low_00002" depart="28.11" from="537797267#3" to="23134098#1" departLane="best" departSpeed="max" />
    <trip id="low_00003" depart="39.67" from="24577478#1" to="24583327#15" departLane="best" departSpeed="max" />
    <trip id="low_00004" depart="55.99" from="1307222666#1" to="1493678683#1" departLane="best" departSpeed="max" />
    <trip id="low_00005" depart="67.48" from="1493678685" to="-1307222666#1" departLane="best" departSpeed="max" />
    <trip id="low_00006" depart="81.29" from="24584375#1" to="24584375#3" departLane="best" departSpeed="max" />
    <trip id="low_00007" depart="86.53" from="1493678685" to="1493678683#1" departLane="best" departSpeed="max" />
    <trip id="low_00008" depart="101.34" from="24563448#3" to="-537797267#1" departLane="best" departSpeed="max" />
    <trip id="low_00009" depart="110.05" from="-24584383#0" to="24584377#7" departLane="best" departSpeed="max" />
    <trip id="low_00010" depart="123.64" from="582461172#0" to="582461172#1" departLane="best" departSpeed="max" />
    <trip id="low_00011" depart="138.04" from="24577478#1" to="1066619122#0" departLane="best" departSpeed="max" />
    <trip id="low_00012" depart="146.02" from="563974730#5" to="24583327#15" departLane="best" departSpeed="max" />
    <trip id="low_00013" depart="159.47" from="23134098#0" to="23134098#1" departLane="best" departSpeed="max" />
    <trip id="low_00014" depart="175.26" from="359757123" to="709276135#1" departLane="best" departSpeed="max" />
    <trip id="low_00015" depart="186.38" from="1493678685" to="1307222667#1" departLane="best" departSpeed="max" />
    <trip id="low_00016" depart="195.65" from="-537797267#1" to="537797267#1" departLane="best" departSpeed="max" />
    <trip id="low_00017" depart="210.75" from="-537797267#3" to="711421334#6" departLane="best" departSpeed="max" />
    <trip id="low_00018" depart="224.60" from="24583327#11" to="24583327#15" departLane="best" departSpeed="max" />
    <trip id="low_00019" depart="229.85" from="537797267#1" to="24563448#6" departLane="best" departSpeed="max" />
    <trip id="low_00020" depart="248.57" from="-359757123" to="-1307222666#1" departLane="best" departSpeed="max" />
    <trip id="low_00021" depart="259.66" from="-537797267#1" to="-359757123" departLane="best" departSpeed="max" />
    <trip id="low_00022" depart="268.66" from="675478334#9" to="24584377#7" departLane="best" departSpeed="max" />
    <trip id="low_00023" depart="279.11" from="24584375#1" to="-24584383#0" departLane="best" departSpeed="max" />
    <trip id="low_00024" depart="297.84" from="709276138#1" to="537797267#1" departLane="best" departSpeed="max" />
    <trip id="low_00025" depart="304.63" from="-24584383#1" to="24584383#1" departLane="best" departSpeed="max" />
    <trip id="low_00026" depart="314.58" from="-537797267#3" to="-537797267#1" departLane="best" departSpeed="max" />
    <trip id="low_00027" depart="326.61" from="24583327#11" to="74851428#1" departLane="best" departSpeed="max" />
    <trip id="low_00028" depart="344.92" from="1307222666#1" to="359757123" departLane="best" departSpeed="max" />
    <trip id="low_00029" depart="354.87" from="24584375#1" to="24584383#1" departLane="best" departSpeed="max" />
    <trip id="low_00030" depart="368.58" from="-537797267#3" to="537797267#3" departLane="best" departSpeed="max" />
    <trip id="low_00031" depart="379.93" from="709276138#1" to="-359757123" departLane="best" departSpeed="max" />
    <trip id="low_00032" depart="390.30" from="537797267#1" to="537797267#3" departLane="best" departSpeed="max" />
    <trip id="low_00033" depart="405.97" from="709276138#1" to="709276135#1" departLane="best" departSpeed="max" />
    <trip id="low_00034" depart="412.98" from="997761547#0" to="24583327#15" departLane="best" departSpeed="max" />
    <trip id="low_00035" depart="426.44" from="-537797267#1" to="709281061#1" departLane="best" departSpeed="max" />
    <trip id="low_00036" depart="440.77" from="537797266#4" to="537797267#1" departLane="best" departSpeed="max" />
    <trip id="low_00037" depart="451.00" from="1354558617" to="24584375#3" departLane="best" departSpeed="max" />
    <trip id="low_00038" depart="465.04" from="1307222666#1" to="1307222667#1" departLane="best" departSpeed="max" />
    <trip id="low_00039" depart="474.65" from="537797266#4" to="-359757123" departLane="best" departSpeed="max" />
    <trip id="low_00040" depart="487.72" from="675478334#9" to="1354558617" departLane="best" departSpeed="max" />
    <trip id="low_00041" depart="494.18" from="537797267#1" to="-537797267#1" departLane="best" departSpeed="max" />
    <trip id="low_00042" depart="507.71" from="24577478#1" to="996679779#1" departLane="best" departSpeed="max" />
    <trip id="low_00043" depart="520.23" from="24563448#3" to="24563448#6" departLane="best" departSpeed="max" />
    <trip id="low_00044" depart="530.47" from="-24584383#0" to="1354558617" departLane="best" departSpeed="max" />
    <trip id="low_00045" depart="543.76" from="997761547#0" to="996679779#1" departLane="best" departSpeed="max" />
    <trip id="low_00046" depart="554.65" from="711421334#3" to="711421334#6" departLane="best" departSpeed="max" />
    <trip id="low_00047" depart="568.13" from="-359757123" to="359757123" departLane="best" departSpeed="max" />
    <trip id="low_00048" depart="583.14" from="-24584383#1" to="-24584383#0" departLane="best" departSpeed="max" />
    <trip id="low_00049" depart="592.86" from="537797266#4" to="709276135#1" departLane="best" departSpeed="max" />
    <trip id="low_00050" depart="604.91" from="23134098#0" to="-537797267#3" departLane="best" departSpeed="max" />
    <trip id="low_00051" depart="615.56" from="997761547#0" to="1066619122#0" departLane="best" departSpeed="max" />
    <trip id="low_00052" depart="628.04" from="760536610#1" to="359757123" departLane="best" departSpeed="max" />
    <trip id="low_00053" depart="645.67" from="1354558617" to="-24584383#0" departLane="best" departSpeed="max" />
    <trip id="low_00054" depart="655.24" from="563974730#5" to="1066619122#0" departLane="best" departSpeed="max" />
    <trip id="low_00055" depart="666.92" from="359757123" to="-359757123" departLane="best" departSpeed="max" />
    <trip id="low_00056" depart="675.24" from="359757123" to="537797267#1" departLane="best" departSpeed="max" />
    <trip id="low_00057" depart="691.92" from="24583327#11" to="1066619122#0" departLane="best" departSpeed="max" />
    <trip id="low_00058" depart="699.17" from="-359757123" to="1307222667#1" departLane="best" departSpeed="max" />
    <trip id="low_00059" depart="712.99" from="-537797267#3" to="24563448#6" departLane="best" departSpeed="max" />
    <trip id="low_00060" depart="730.11" from="24583327#11" to="996679779#1" departLane="best" departSpeed="max" />
    <trip id="low_00061" depart="739.18" from="24563448#3" to="711421334#6" departLane="best" departSpeed="max" />
    <trip id="low_00062" depart="750.48" from="675478334#9" to="-675478334#9" departLane="best" departSpeed="max" />
    <trip id="low_00063" depart="763.55" from="24577478#1" to="74851428#1" departLane="best" departSpeed="max" />
    <trip id="low_00064" depart="776.88" from="760536610#1" to="1493678683#1" departLane="best" departSpeed="max" />
    <trip id="low_00065" depart="788.32" from="1493678685" to="359757123" departLane="best" departSpeed="max" />
    <trip id="low_00066" depart="795.72" from="-359757123" to="1493678683#1" departLane="best" departSpeed="max" />
    <trip id="low_00067" depart="806.07" from="1307222666#1" to="-1307222666#1" departLane="best" departSpeed="max" />
    <trip id="low_00068" depart="820.45" from="537797266#4" to="709281061#1" departLane="best" departSpeed="max" />
    <trip id="low_00069" depart="832.05" from="709276138#1" to="709281061#1" departLane="best" departSpeed="max" />
    <trip id="low_00070" depart="843.57" from="24584377#6" to="-675478334#9" departLane="best" departSpeed="max" />
    <trip id="low_00071" depart="861.72" from="563974730#5" to="996679779#1" departLane="best" departSpeed="max" />
    <trip id="low_00072" depart="873.16" from="537797267#1" to="711421334#6" departLane="best" departSpeed="max" />
    <trip id="low_00073" depart="880.44" from="711421334#3" to="24563448#6" departLane="best" departSpeed="max" />
    <trip id="low_00074" depart="895.31" from="-537797267#1" to="709276135#1" departLane="best" departSpeed="max" />
    <trip id="medium_00000" depart="901.44" from="-537797267#3" to="24563448#6" departLane="best" departSpeed="max" />
    <trip id="medium_00001" depart="908.90" from="582461172#0" to="582461172#1" departLane="best" departSpeed="max" />
    <trip id="medium_00002" depart="915.21" from="359757123" to="709281061#1" departLane="best" departSpeed="max" />
    <trip id="medium_00003" depart="920.01" from="24563448#3" to="-537797267#1" departLane="best" departSpeed="max" />
    <trip id="medium_00004" depart="928.56" from="563974730#5" to="1066619122#0" departLane="best" departSpeed="max" />
    <trip id="medium_00005" depart="932.68" from="537797266#4" to="537797267#1" departLane="best" departSpeed="max" />
    <trip id="medium_00006" depart="937.79" from="24584375#1" to="-24584383#0" departLane="best" departSpeed="max" />
    <trip id="medium_00007" depart="945.17" from="24583327#11" to="24583327#15" departLane="best" departSpeed="max" />
    <trip id="medium_00008" depart="951.97" from="997761547#0" to="24583327#15" departLane="best" departSpeed="max" />
    <trip id="medium_00009" depart="955.74" from="1354558617" to="24584375#3" departLane="best" departSpeed="max" />
    <trip id="medium_00010" depart="962.21" from="709276138#1" to="709281061#1" departLane="best" departSpeed="max" />
    <trip id="medium_00011" depart="971.08" from="711421334#3" to="537797267#3" departLane="best" departSpeed="max" />
    <trip id="medium_00012" depart="975.63" from="709276138#1" to="537797267#1" departLane="best" departSpeed="max" />
    <trip id="medium_00013" depart="980.74" from="24584375#1" to="24584383#1" departLane="best" departSpeed="max" />
    <trip id="medium_00014" depart="987.07" from="709276138#1" to="709276135#1" departLane="best" departSpeed="max" />
    <trip id="medium_00015" depart="991.41" from="563974730#5" to="74851428#1" departLane="best" departSpeed="max" />
    <trip id="medium_00016" depart="997.84" from="1307222666#1" to="1493678683#1" departLane="best" departSpeed="max" />
    <trip id="medium_00017" depart="1004.32" from="997761547#0" to="996679779#1" departLane="best" departSpeed="max" />
    <trip id="medium_00018" depart="1011.37" from="1493678685" to="-1307222666#1" departLane="best" departSpeed="max" />
    <trip id="medium_00019" depart="1015.87" from="563974730#5" to="24583327#15" departLane="best" departSpeed="max" />
    <trip id="medium_00020" depart="1021.82" from="675478334#9" to="24584377#7" departLane="best" departSpeed="max" />
    <trip id="medium_00021" depart="1027.20" from="537797266#4" to="-359757123" departLane="best" departSpeed="max" />
    <trip id="medium_00022" depart="1035.55" from="563974730#5" to="996679779#1" departLane="best" departSpeed="max" />
    <trip id="medium_00023" depart="1039.86" from="537797267#1" to="537797267#3" departLane="best" departSpeed="max" />
    <trip id="medium_00024" depart="1048.70" from="537797267#1" to="711421334#6" departLane="best" departSpeed="max" />
    <trip id="medium_00025" depart="1054.51" from="-24584383#1" to="24584383#1" departLane="best" departSpeed="max" />
    <trip id="medium_00026" depart="1057.20" from="-537797267#3" to="-537797267#1" departLane="best" departSpeed="max" />
    <trip id="medium_00027" depart="1063.90" from="24584377#6" to="-675478334#9" departLane="best" departSpeed="max" />
    <trip id="medium_00028" depart="1071.71" from="-359757123" to="359757123" departLane="best" departSpeed="max" />
    <trip id="medium_00029" depart="1075.80" from="-537797267#3" to="711421334#6" departLane="best" departSpeed="max" />
    <trip id="medium_00030" depart="1081.46" from="24583327#11" to="996679779#1" departLane="best" departSpeed="max" />
    <trip id="medium_00031" depart="1090.83" from="537797266#4" to="709276135#1" departLane="best" departSpeed="max" />
    <trip id="medium_00032" depart="1095.30" from="24583327#11" to="1066619122#0" departLane="best" departSpeed="max" />
    <trip id="medium_00033" depart="1100.89" from="711421334#3" to="24563448#6" departLane="best" departSpeed="max" />
    <trip id="medium_00034" depart="1108.20" from="1354558617" to="-24584383#0" departLane="best" departSpeed="max" />
    <trip id="medium_00035" depart="1114.29" from="760536610#1" to="1307222667#1" departLane="best" departSpeed="max" />
    <trip id="medium_00036" depart="1117.70" from="537797267#1" to="24563448#6" departLane="best" departSpeed="max" />
    <trip id="medium_00037" depart="1123.31" from="24563448#3" to="24563448#6" departLane="best" departSpeed="max" />
    <trip id="medium_00038" depart="1130.71" from="24577478#1" to="996679779#1" departLane="best" departSpeed="max" />
    <trip id="medium_00039" depart="1136.68" from="-537797267#1" to="709281061#1" departLane="best" departSpeed="max" />
    <trip id="medium_00040" depart="1142.86" from="1354558617" to="24584383#1" departLane="best" departSpeed="max" />
    <trip id="medium_00041" depart="1149.96" from="-24584383#0" to="-675478334#9" departLane="best" departSpeed="max" />
    <trip id="medium_00042" depart="1155.73" from="1307222666#1" to="-1307222666#1" departLane="best" departSpeed="max" />
    <trip id="medium_00043" depart="1163.03" from="1307222666#1" to="1307222667#1" departLane="best" departSpeed="max" />
    <trip id="medium_00044" depart="1165.31" from="-537797267#1" to="-359757123" departLane="best" departSpeed="max" />
    <trip id="medium_00045" depart="1172.59" from="-24584383#1" to="-24584383#0" departLane="best" departSpeed="max" />
    <trip id="medium_00046" depart="1178.33" from="537797266#4" to="709281061#1" departLane="best" departSpeed="max" />
    <trip id="medium_00047" depart="1186.52" from="24583327#11" to="74851428#1" departLane="best" departSpeed="max" />
    <trip id="medium_00048" depart="1189.94" from="675478334#9" to="-675478334#9" departLane="best" departSpeed="max" />
    <trip id="medium_00049" depart="1195.70" from="711421334#3" to="711421334#6" departLane="best" departSpeed="max" />
    <trip id="medium_00050" depart="1202.78" from="24584375#1" to="24584375#3" departLane="best" departSpeed="max" />
    <trip id="medium_00051" depart="1208.67" from="-359757123" to="1493678683#1" departLane="best" departSpeed="max" />
    <trip id="medium_00052" depart="1214.07" from="24584377#6" to="1354558617" departLane="best" departSpeed="max" />
    <trip id="medium_00053" depart="1219.95" from="1493678685" to="1307222667#1" departLane="best" departSpeed="max" />
    <trip id="medium_00054" depart="1228.78" from="24563448#3" to="711421334#6" departLane="best" departSpeed="max" />
    <trip id="medium_00055" depart="1232.76" from="1493678685" to="1493678683#1" departLane="best" departSpeed="max" />
    <trip id="medium_00056" depart="1240.52" from="24577478#1" to="1066619122#0" departLane="best" departSpeed="max" />
    <trip id="medium_00057" depart="1245.21" from="537797267#3" to="23134098#1" departLane="best" departSpeed="max" />
    <trip id="medium_00058" depart="1249.11" from="709276138#1" to="-359757123" departLane="best" departSpeed="max" />
    <trip id="medium_00059" depart="1259.10" from="711421334#3" to="-537797267#1" departLane="best" departSpeed="max" />
    <trip id="medium_00060" depart="1264.41" from="359757123" to="-359757123" departLane="best" departSpeed="max" />
    <trip id="medium_00061" depart="1270.97" from="359757123" to="537797267#1" departLane="best" departSpeed="max" />
    <trip id="medium_00062" depart="1276.79" from="24577478#1" to="24583327#15" departLane="best" departSpeed="max" />
    <trip id="medium_00063" depart="1282.46" from="-537797267#3" to="537797267#3" departLane="best" departSpeed="max" />
    <trip id="medium_00064" depart="1285.60" from="675478334#9" to="1354558617" departLane="best" departSpeed="max" />
    <trip id="medium_00065" depart="1292.94" from="24584377#6" to="24584377#7" departLane="best" departSpeed="max" />
    <trip id="medium_00066" depart="1297.80" from="-537797267#1" to="537797267#1" departLane="best" departSpeed="max" />
    <trip id="medium_00067" depart="1304.58" from="760536610#1" to="-1307222666#1" departLane="best" departSpeed="max" />
    <trip id="medium_00068" depart="1309.15" from="537797267#1" to="-537797267#1" departLane="best" departSpeed="max" />
    <trip id="medium_00069" depart="1316.49" from="-359757123" to="1307222667#1" departLane="best" departSpeed="max" />
    <trip id="medium_00070" depart="1325.04" from="-24584383#0" to="24584377#7" departLane="best" departSpeed="max" />
    <trip id="medium_00071" depart="1328.01" from="760536610#1" to="1493678683#1" departLane="best" departSpeed="max" />
    <trip id="medium_00072" depart="1336.19" from="1307222666#1" to="359757123" departLane="best" departSpeed="max" />
    <trip id="medium_00073" depart="1340.81" from="1493678685" to="359757123" departLane="best" departSpeed="max" />
    <trip id="medium_00074" depart="1346.68" from="23134098#0" to="23134098#1" departLane="best" departSpeed="max" />
    <trip id="medium_00075" depart="1354.92" from="-24584383#1" to="24584375#3" departLane="best" departSpeed="max" />
    <trip id="medium_00076" depart="1361.08" from="-537797267#1" to="709276135#1" departLane="best" departSpeed="max" />
    <trip id="medium_00077" depart="1365.23" from="-24584383#0" to="1354558617" departLane="best" departSpeed="max" />
    <trip id="medium_00078" depart="1371.92" from="359757123" to="709276135#1" departLane="best" departSpeed="max" />
    <trip id="medium_00079" depart="1375.55" from="24577478#1" to="74851428#1" departLane="best" departSpeed="max" />
    <trip id="medium_00080" depart="1382.15" from="997761547#0" to="74851428#1" departLane="best" departSpeed="max" />
    <trip id="medium_00081" depart="1390.97" from="760536610#1" to="359757123" departLane="best" departSpeed="max" />
    <trip id="medium_00082" depart="1395.33" from="24563448#3" to="537797267#3" departLane="best" departSpeed="max" />
    <trip id="medium_00083" depart="1401.18" from="23134098#0" to="-537797267#3" departLane="best" departSpeed="max" />
    <trip id="medium_00084" depart="1408.04" from="-359757123" to="-1307222666#1" departLane="best" departSpeed="max" />
    <trip id="medium_00085" depart="1411.14" from="997761547#0" to="1066619122#0" departLane="best" departSpeed="max" />
    <trip id="medium_00086" depart="1419.35" from="-537797267#3" to="24563448#6" departLane="best" departSpeed="max" />
    <trip id="medium_00087" depart="1425.01" from="582461172#0" to="582461172#1" departLane="best" departSpeed="max" />
    <trip id="medium_00088" depart="1432.48" from="359757123" to="709281061#1" departLane="best" departSpeed="max" />
    <trip id="medium_00089" depart="1435.56" from="24563448#3" to="-537797267#1" departLane="best" departSpeed="max" />
    <trip id="medium_00090" depart="1444.94" from="563974730#5" to="1066619122#0" departLane="best" departSpeed="max" />
    <trip id="medium_00091" depart="1447.24" from="537797266#4" to="537797267#1" departLane="best" departSpeed="max" />
    <trip id="medium_00092" depart="1453.68" from="24584375#1" to="-24584383#0" departLane="best" departSpeed="max" />
    <trip id="medium_00093" depart="1461.40" from="24583327#11" to="24583327#15" departLane="best" departSpeed="max" />
    <trip id="medium_00094" depart="1467.74" from="997761547#0" to="24583327#15" departLane="best" departSpeed="max" />
    <trip id="medium_00095" depart="1471.89" from="1354558617" to="24584375#3" departLane="best" departSpeed="max" />
    <trip id="medium_00096" depart="1477.40" from="709276138#1" to="709281061#1" departLane="best" departSpeed="max" />
    <trip id="medium_00097" depart="1486.64" from="711421334#3" to="537797267#3" departLane="best" departSpeed="max" />
    <trip id="medium_00098" depart="1489.93" from="709276138#1" to="537797267#1" departLane="best" departSpeed="max" />
    <trip id="medium_00099" depart="1497.40" from="24584375#1" to="24584383#1" departLane="best" departSpeed="max" />
    <trip id="medium_00100" depart="1503.50" from="709276138#1" to="709276135#1" departLane="best" departSpeed="max" />
    <trip id="medium_00101" depart="1508.66" from="563974730#5" to="74851428#1" departLane="best" departSpeed="max" />
    <trip id="medium_00102" depart="1515.35" from="1307222666#1" to="1493678683#1" departLane="best" departSpeed="max" />
    <trip id="medium_00103" depart="1521.10" from="997761547#0" to="996679779#1" departLane="best" departSpeed="max" />
    <trip id="medium_00104" depart="1528.83" from="1493678685" to="-1307222666#1" departLane="best" departSpeed="max" />
    <trip id="medium_00105" depart="1531.76" from="563974730#5" to="24583327#15" departLane="best" departSpeed="max" />
    <trip id="medium_00106" depart="1539.91" from="675478334#9" to="24584377#7" departLane="best" departSpeed="max" />
    <trip id="medium_00107" depart="1543.90" from="537797266#4" to="-359757123" departLane="best" departSpeed="max" />
    <trip id="medium_00108" depart="1550.56" from="563974730#5" to="996679779#1" departLane="best" departSpeed="max" />
    <trip id="medium_00109" depart="1557.72" from="537797267#1" to="537797267#3" departLane="best" departSpeed="max" />
    <trip id="medium_00110" depart="1562.16" from="537797267#1" to="711421334#6" departLane="best" departSpeed="max" />
    <trip id="medium_00111" depart="1568.23" from="-24584383#1" to="24584383#1" departLane="best" departSpeed="max" />
    <trip id="medium_00112" depart="1576.06" from="-537797267#3" to="-537797267#1" departLane="best" departSpeed="max" />
    <trip id="medium_00113" depart="1579.20" from="24584377#6" to="-675478334#9" departLane="best" departSpeed="max" />
    <trip id="medium_00114" depart="1586.82" from="-359757123" to="359757123" departLane="best" departSpeed="max" />
    <trip id="medium_00115" depart="1595.09" from="-537797267#3" to="711421334#6" departLane="best" departSpeed="max" />
    <trip id="medium_00116" depart="1601.08" from="24583327#11" to="996679779#1" departLane="best" departSpeed="max" />
    <trip id="medium_00117" depart="1603.21" from="537797266#4" to="709276135#1" departLane="best" departSpeed="max" />
    <trip id="medium_00118" depart="1609.80" from="24583327#11" to="1066619122#0" departLane="best" departSpeed="max" />
    <trip id="medium_00119" depart="1616.01" from="711421334#3" to="24563448#6" departLane="best" departSpeed="max" />
    <trip id="medium_00120" depart="1624.82" from="1354558617" to="-24584383#0" departLane="best" departSpeed="max" />
    <trip id="medium_00121" depart="1630.60" from="760536610#1" to="1307222667#1" departLane="best" departSpeed="max" />
    <trip id="medium_00122" depart="1636.59" from="537797267#1" to="24563448#6" departLane="best" departSpeed="max" />
    <trip id="medium_00123" depart="1640.45" from="24563448#3" to="24563448#6" departLane="best" departSpeed="max" />
    <trip id="medium_00124" depart="1645.56" from="24577478#1" to="996679779#1" departLane="best" departSpeed="max" />
    <trip id="medium_00125" depart="1654.40" from="-537797267#1" to="709281061#1" departLane="best" departSpeed="max" />
    <trip id="medium_00126" depart="1659.85" from="1354558617" to="24584383#1" departLane="best" departSpeed="max" />
    <trip id="medium_00127" depart="1665.47" from="-24584383#0" to="-675478334#9" departLane="best" departSpeed="max" />
    <trip id="medium_00128" depart="1673.05" from="1307222666#1" to="-1307222666#1" departLane="best" departSpeed="max" />
    <trip id="medium_00129" depart="1677.65" from="1307222666#1" to="1307222667#1" departLane="best" departSpeed="max" />
    <trip id="medium_00130" depart="1680.93" from="-537797267#1" to="-359757123" departLane="best" departSpeed="max" />
    <trip id="medium_00131" depart="1690.33" from="-24584383#1" to="-24584383#0" departLane="best" departSpeed="max" />
    <trip id="medium_00132" depart="1694.16" from="537797266#4" to="709281061#1" departLane="best" departSpeed="max" />
    <trip id="medium_00133" depart="1701.69" from="24583327#11" to="74851428#1" departLane="best" departSpeed="max" />
    <trip id="medium_00134" depart="1708.84" from="675478334#9" to="-675478334#9" departLane="best" departSpeed="max" />
    <trip id="medium_00135" depart="1711.46" from="711421334#3" to="711421334#6" departLane="best" departSpeed="max" />
    <trip id="medium_00136" depart="1717.38" from="24584375#1" to="24584375#3" departLane="best" departSpeed="max" />
    <trip id="medium_00137" depart="1723.35" from="-359757123" to="1493678683#1" departLane="best" departSpeed="max" />
    <trip id="medium_00138" depart="1731.22" from="24584377#6" to="1354558617" departLane="best" departSpeed="max" />
    <trip id="medium_00139" depart="1736.04" from="1493678685" to="1307222667#1" departLane="best" departSpeed="max" />
    <trip id="medium_00140" depart="1743.44" from="24563448#3" to="711421334#6" departLane="best" departSpeed="max" />
    <trip id="medium_00141" depart="1749.91" from="1493678685" to="1493678683#1" departLane="best" departSpeed="max" />
    <trip id="medium_00142" depart="1753.76" from="24577478#1" to="1066619122#0" departLane="best" departSpeed="max" />
    <trip id="medium_00143" depart="1761.56" from="537797267#3" to="23134098#1" departLane="best" departSpeed="max" />
    <trip id="medium_00144" depart="1766.01" from="709276138#1" to="-359757123" departLane="best" departSpeed="max" />
    <trip id="medium_00145" depart="1772.95" from="711421334#3" to="-537797267#1" departLane="best" departSpeed="max" />
    <trip id="medium_00146" depart="1780.70" from="359757123" to="-359757123" departLane="best" departSpeed="max" />
    <trip id="medium_00147" depart="1786.45" from="359757123" to="537797267#1" departLane="best" departSpeed="max" />
    <trip id="medium_00148" depart="1789.29" from="24577478#1" to="24583327#15" departLane="best" departSpeed="max" />
    <trip id="medium_00149" depart="1796.68" from="-537797267#3" to="537797267#3" departLane="best" departSpeed="max" />
    <trip id="high_00000" depart="1800.71" from="-537797267#1" to="-359757123" departLane="best" departSpeed="max" />
    <trip id="high_00001" depart="1806.27" from="24563448#3" to="537797267#3" departLane="best" departSpeed="max" />
    <trip id="high_00002" depart="1809.57" from="709276138#1" to="537797267#1" departLane="best" departSpeed="max" />
    <trip id="high_00003" depart="1814.80" from="537797266#4" to="709276135#1" departLane="best" departSpeed="max" />
    <trip id="high_00004" depart="1817.82" from="711421334#3" to="-537797267#1" departLane="best" departSpeed="max" />
    <trip id="high_00005" depart="1823.36" from="537797267#1" to="-537797267#1" departLane="best" departSpeed="max" />
    <trip id="high_00006" depart="1824.92" from="23134098#0" to="-537797267#3" departLane="best" departSpeed="max" />
    <trip id="high_00007" depart="1831.12" from="675478334#9" to="-675478334#9" departLane="best" departSpeed="max" />
    <trip id="high_00008" depart="1833.13" from="537797267#3" to="23134098#1" departLane="best" departSpeed="max" />
    <trip id="high_00009" depart="1836.72" from="997761547#0" to="996679779#1" departLane="best" departSpeed="max" />
    <trip id="high_00010" depart="1841.82" from="1493678685" to="-1307222666#1" departLane="best" departSpeed="max" />
    <trip id="high_00011" depart="1846.06" from="-359757123" to="1307222667#1" departLane="best" departSpeed="max" />
    <trip id="high_00012" depart="1850.86" from="537797266#4" to="-359757123" departLane="best" departSpeed="max" />
    <trip id="high_00013" depart="1854.52" from="1493678685" to="1493678683#1" departLane="best" departSpeed="max" />
    <trip id="high_00014" depart="1859.23" from="711421334#3" to="711421334#6" departLane="best" departSpeed="max" />
    <trip id="high_00015" depart="1862.66" from="-537797267#3" to="537797267#3" departLane="best" departSpeed="max" />
    <trip id="high_00016" depart="1865.15" from="760536610#1" to="359757123" departLane="best" departSpeed="max" />
    <trip id="high_00017" depart="1869.81" from="997761547#0" to="24583327#15" departLane="best" departSpeed="max" />
    <trip id="high_00018" depart="1875.26" from="-24584383#0" to="-675478334#9" departLane="best" departSpeed="max" />
    <trip id="high_00019" depart="1879.18" from="24577478#1" to="74851428#1" departLane="best" departSpeed="max" />
    <trip id="high_00020" depart="1882.34" from="-537797267#1" to="709281061#1" departLane="best" departSpeed="max" />
    <trip id="high_00021" depart="1886.46" from="675478334#9" to="24584377#7" departLane="best" departSpeed="max" />
    <trip id="high_00022" depart="1888.95" from="711421334#3" to="24563448#6" departLane="best" departSpeed="max" />
    <trip id="high_00023" depart="1895.12" from="-537797267#3" to="24563448#6" departLane="best" departSpeed="max" />
    <trip id="high_00024" depart="1898.02" from="1354558617" to="24584375#3" departLane="best" departSpeed="max" />
    <trip id="high_00025" depart="1902.47" from="-359757123" to="1493678683#1" departLane="best" departSpeed="max" />
    <trip id="high_00026" depart="1905.51" from="24563448#3" to="-537797267#1" departLane="best" departSpeed="max" />
    <trip id="high_00027" depart="1910.55" from="1354558617" to="-24584383#0" departLane="best" departSpeed="max" />